/*---------------------------------------------------------------------------*\
| =========                 |                                                 |
| \\      /  F ield         | OpenFOAM: The Open Source CFD Toolbox           |
|  \\    /   O peration     | Version:  2412                                  |
|   \\  /    A nd           | Website:  www.openfoam.com                      |
|    \\/     M anipulation  |                                                 |
\*---------------------------------------------------------------------------*/
Build  : _8dbc61e11c-20241220 OPENFOAM=2412 version=v2412
Arch   : "LSB;label=32;scalar=64"
Exec   : solidParticleInterFoam
Date   : Aug 04 2025
Time   : 21:00:16
Host   : huanlinux
PID    : 1096943
I/O    : uncollated
Case   : /home/huan/OpenFOAM/huan-v2412/applications/lectureNotes/17_implementSolidParticlesInVOF/solver2/tests/damBreak/damBreak
nProcs : 1
trapFpe: Floating point exception trapping enabled (FOAM_SIGFPE).
fileModificationChecking : Monitoring run-time modified files using timeStampMaster (fileModificationSkew 5, maxFileModificationPolls 20)
allowSystemOperations : Allowing user-supplied system call operations

// * * * * * * * * * * * * * * * * * * * * * * * * * * * * * * * * * * * * * //
Create time

Create mesh for time = 0


PIMPLE: Operating solver in PISO mode

Reading field p_rgh

Reading field U

Reading/calculating face flux field phi

Reading transportProperties

Selecting incompressible transport model Newtonian
Selecting incompressible transport model Newtonian
Selecting turbulence model type RAS
Selecting RAS turbulence model kEpsilon
RAS
{
    RASModel        kEpsilon;
    turbulence      on;
    printCoeffs     on;
    Cmu             0.09;
    C1              1.44;
    C2              1.92;
    C3              0;
    sigmak          1;
    sigmaEps        1.3;
}


Reading g

Reading hRef
Calculating field g.h

No MRF models present

No finite volume options present
DICPCG:  Solving for pcorr, Initial residual = 0, Final residual = 0, No Iterations 0
time step continuity errors : sum local = 0, global = 0, cumulative = 0
Courant Number mean: 0 max: 0

Starting time loop

Courant Number mean: 0 max: 0
Interface Courant Number mean: 0 max: 0
deltaT = 0.00119048
Time = 0.00119048

PIMPLE: iteration 1
smoothSolver:  Solving for alpha.water, Initial residual = 0, Final residual = 0, No Iterations 0
Phase-1 volume fraction = 0.130194  Min(alpha.water) = 0  Max(alpha.water) = 1
MULES: Correcting alpha.water
MULES: Correcting alpha.water
Phase-1 volume fraction = 0.130194  Min(alpha.water) = 0  Max(alpha.water) = 1
DICPCG:  Solving for p_rgh, Initial residual = 1, Final residual = 0.00312169, No Iterations 1
time step continuity errors : sum local = 0.000863663, global = -1.26728e-12, cumulative = -1.26728e-12
DICPCG:  Solving for p_rgh, Initial residual = 0.00146342, Final residual = 6.18289e-05, No Iterations 13
time step continuity errors : sum local = 3.6494e-05, global = -1.00159e-05, cumulative = -1.00159e-05
DICPCG:  Solving for p_rgh, Initial residual = 5.08541e-05, Final residual = 8.19126e-08, No Iterations 48
time step continuity errors : sum local = 5.88485e-08, global = 1.01685e-08, cumulative = -1.00057e-05
smoothSolver:  Solving for epsilon, Initial residual = 0.000995264, Final residual = 3.9682e-13, No Iterations 1
smoothSolver:  Solving for k, Initial residual = 1, Final residual = 5.82935e-10, No Iterations 1
ExecutionTime = 0.98 s  ClockTime = 1 s

Courant Number mean: 0.00124881 max: 0.107249
Interface Courant Number mean: 0 max: 0
deltaT = 0.00143557
Time = 0.00262605

PIMPLE: iteration 1
smoothSolver:  Solving for alpha.water, Initial residual = 0.000290383, Final residual = 2.11982e-12, No Iterations 2
Phase-1 volume fraction = 0.130194  Min(alpha.water) = 0  Max(alpha.water) = 1
MULES: Correcting alpha.water
MULES: Correcting alpha.water
Phase-1 volume fraction = 0.130194  Min(alpha.water) = -4.60047e-10  Max(alpha.water) = 1
DICPCG:  Solving for p_rgh, Initial residual = 0.00351552, Final residual = 0.000170724, No Iterations 11
time step continuity errors : sum local = 3.65218e-05, global = 4.20832e-06, cumulative = -5.79737e-06
DICPCG:  Solving for p_rgh, Initial residual = 0.000863728, Final residual = 3.30532e-05, No Iterations 30
time step continuity errors : sum local = 7.23396e-06, global = 3.99454e-07, cumulative = -5.39792e-06
DICPCG:  Solving for p_rgh, Initial residual = 0.000211056, Final residual = 9.97328e-08, No Iterations 48
time step continuity errors : sum local = 2.15159e-08, global = 9.39528e-11, cumulative = -5.39782e-06
smoothSolver:  Solving for epsilon, Initial residual = 0.0198396, Final residual = 9.25208e-07, No Iterations 3
smoothSolver:  Solving for k, Initial residual = 0.425062, Final residual = 1.78161e-07, No Iterations 5
ExecutionTime = 1.09 s  ClockTime = 1 s

Courant Number mean: 0.00161231 max: 0.0330914
Interface Courant Number mean: 2.88988e-05 max: 0.0317877
deltaT = 0.00169193
Time = 0.00431798

PIMPLE: iteration 1
smoothSolver:  Solving for alpha.water, Initial residual = 0.000144076, Final residual = 7.15333e-10, No Iterations 1
Phase-1 volume fraction = 0.130194  Min(alpha.water) = 0  Max(alpha.water) = 1
MULES: Correcting alpha.water
MULES: Correcting alpha.water
Phase-1 volume fraction = 0.130194  Min(alpha.water) = -9.15102e-11  Max(alpha.water) = 1
DICPCG:  Solving for p_rgh, Initial residual = 0.00184275, Final residual = 8.83476e-05, No Iterations 11
time step continuity errors : sum local = 2.51741e-05, global = -2.88094e-06, cumulative = -8.27877e-06
DICPCG:  Solving for p_rgh, Initial residual = 0.000156108, Final residual = 6.06208e-06, No Iterations 33
time step continuity errors : sum local = 1.74589e-06, global = -1.52047e-07, cumulative = -8.43081e-06
DICPCG:  Solving for p_rgh, Initial residual = 3.84701e-05, Final residual = 8.4776e-08, No Iterations 46
time step continuity errors : sum local = 2.43049e-08, global = -6.647e-10, cumulative = -8.43148e-06
smoothSolver:  Solving for epsilon, Initial residual = 0.00750948, Final residual = 1.62343e-07, No Iterations 3
smoothSolver:  Solving for k, Initial residual = 0.269551, Final residual = 1.08156e-07, No Iterations 5
ExecutionTime = 1.2 s  ClockTime = 2 s

Courant Number mean: 0.00296893 max: 0.0270828
Interface Courant Number mean: 2.06603e-05 max: 0.0266887
deltaT = 0.00198617
Time = 0.00630415

PIMPLE: iteration 1
smoothSolver:  Solving for alpha.water, Initial residual = 0.000180556, Final residual = 4.19774e-09, No Iterations 1
Phase-1 volume fraction = 0.130194  Min(alpha.water) = -1.3772e-14  Max(alpha.water) = 1
MULES: Correcting alpha.water
MULES: Correcting alpha.water
Phase-1 volume fraction = 0.130194  Min(alpha.water) = -9.222e-11  Max(alpha.water) = 1
DICPCG:  Solving for p_rgh, Initial residual = 0.00177892, Final residual = 4.70137e-05, No Iterations 8
time step continuity errors : sum local = 1.75379e-05, global = -2.02455e-08, cumulative = -8.45173e-06
DICPCG:  Solving for p_rgh, Initial residual = 0.000104857, Final residual = 3.73114e-06, No Iterations 13
time step continuity errors : sum local = 1.4083e-06, global = -3.50661e-07, cumulative = -8.80239e-06
DICPCG:  Solving for p_rgh, Initial residual = 2.65104e-05, Final residual = 9.22561e-08, No Iterations 40
time step continuity errors : sum local = 3.46083e-08, global = 1.4733e-09, cumulative = -8.80091e-06
smoothSolver:  Solving for epsilon, Initial residual = 0.00689638, Final residual = 2.88007e-07, No Iterations 3
smoothSolver:  Solving for k, Initial residual = 0.200061, Final residual = 1.94237e-07, No Iterations 5
ExecutionTime = 1.3 s  ClockTime = 2 s

Courant Number mean: 0.00505707 max: 0.0457576
Interface Courant Number mean: 0.000116049 max: 0.0457575
deltaT = 0.00242755
Time = 0.0087317

PIMPLE: iteration 1
smoothSolver:  Solving for alpha.water, Initial residual = 0.000295608, Final residual = 2.07393e-14, No Iterations 2
Phase-1 volume fraction = 0.130194  Min(alpha.water) = -4.15344e-17  Max(alpha.water) = 1
MULES: Correcting alpha.water
MULES: Correcting alpha.water
Phase-1 volume fraction = 0.130194  Min(alpha.water) = -4.15344e-17  Max(alpha.water) = 1
DICPCG:  Solving for p_rgh, Initial residual = 0.00247025, Final residual = 9.17285e-05, No Iterations 2
time step continuity errors : sum local = 4.73572e-05, global = 2.57893e-07, cumulative = -8.54302e-06
DICPCG:  Solving for p_rgh, Initial residual = 0.000133568, Final residual = 6.24342e-06, No Iterations 11
time step continuity errors : sum local = 3.22498e-06, global = 1.77583e-07, cumulative = -8.36544e-06
DICPCG:  Solving for p_rgh, Initial residual = 3.6171e-05, Final residual = 7.50454e-08, No Iterations 46
time step continuity errors : sum local = 3.91338e-08, global = -1.39398e-09, cumulative = -8.36683e-06
smoothSolver:  Solving for epsilon, Initial residual = 0.00680514, Final residual = 6.75553e-07, No Iterations 3
smoothSolver:  Solving for k, Initial residual = 0.169294, Final residual = 4.85032e-07, No Iterations 5
ExecutionTime = 1.41 s  ClockTime = 2 s

Courant Number mean: 0.00851632 max: 0.0743665
Interface Courant Number mean: 0.000254742 max: 0.0743663
deltaT = 0.00294774
Time = 0.0116794

PIMPLE: iteration 1
smoothSolver:  Solving for alpha.water, Initial residual = 0.000475755, Final residual = 4.65872e-13, No Iterations 2
Phase-1 volume fraction = 0.130194  Min(alpha.water) = 0  Max(alpha.water) = 1
MULES: Correcting alpha.water
MULES: Correcting alpha.water
Phase-1 volume fraction = 0.130194  Min(alpha.water) = -1.18763e-13  Max(alpha.water) = 1
DICPCG:  Solving for p_rgh, Initial residual = 0.0033021, Final residual = 0.00016439, No Iterations 1
time step continuity errors : sum local = 0.000116142, global = 2.37323e-07, cumulative = -8.12951e-06
DICPCG:  Solving for p_rgh, Initial residual = 0.000199139, Final residual = 9.03016e-06, No Iterations 10
time step continuity errors : sum local = 6.37708e-06, global = 1.33129e-07, cumulative = -7.99638e-06
DICPCG:  Solving for p_rgh, Initial residual = 5.84704e-05, Final residual = 9.43635e-08, No Iterations 47
time step continuity errors : sum local = 6.74399e-08, global = 2.21038e-09, cumulative = -7.99417e-06
smoothSolver:  Solving for epsilon, Initial residual = 0.00657103, Final residual = 1.81576e-07, No Iterations 4
smoothSolver:  Solving for k, Initial residual = 0.148394, Final residual = 1.95394e-07, No Iterations 6
ExecutionTime = 1.51 s  ClockTime = 2 s

Courant Number mean: 0.0138287 max: 0.112633
Interface Courant Number mean: 0.000476172 max: 0.112633
deltaT = 0.00348369
Time = 0.0151631

PIMPLE: iteration 1
smoothSolver:  Solving for alpha.water, Initial residual = 0.000727291, Final residual = 4.51383e-11, No Iterations 2
Phase-1 volume fraction = 0.130194  Min(alpha.water) = 0  Max(alpha.water) = 1
MULES: Correcting alpha.water
MULES: Correcting alpha.water
Phase-1 volume fraction = 0.130194  Min(alpha.water) = -2.01476e-09  Max(alpha.water) = 1
DICPCG:  Solving for p_rgh, Initial residual = 0.00411855, Final residual = 8.73804e-05, No Iterations 2
time step continuity errors : sum local = 8.05675e-05, global = 1.84674e-07, cumulative = -7.80949e-06
DICPCG:  Solving for p_rgh, Initial residual = 0.000133111, Final residual = 5.45254e-06, No Iterations 12
time step continuity errors : sum local = 5.02637e-06, global = 2.29205e-07, cumulative = -7.58029e-06
DICPCG:  Solving for p_rgh, Initial residual = 4.49234e-05, Final residual = 9.66653e-08, No Iterations 44
time step continuity errors : sum local = 9.02799e-08, global = 4.32059e-09, cumulative = -7.57597e-06
smoothSolver:  Solving for epsilon, Initial residual = 0.00615157, Final residual = 3.95988e-07, No Iterations 4
smoothSolver:  Solving for k, Initial residual = 0.129614, Final residual = 3.95559e-07, No Iterations 6
ExecutionTime = 1.62 s  ClockTime = 2 s

Courant Number mean: 0.0211866 max: 0.158725
Interface Courant Number mean: 0.000793907 max: 0.158725
deltaT = 0.00435461
Time = 0.0195177

PIMPLE: iteration 1
smoothSolver:  Solving for alpha.water, Initial residual = 0.00114639, Final residual = 7.46444e-10, No Iterations 2
Phase-1 volume fraction = 0.130194  Min(alpha.water) = 0  Max(alpha.water) = 1
MULES: Correcting alpha.water
MULES: Correcting alpha.water
Phase-1 volume fraction = 0.130194  Min(alpha.water) = -8.50364e-09  Max(alpha.water) = 1
DICPCG:  Solving for p_rgh, Initial residual = 0.00512232, Final residual = 9.45182e-05, No Iterations 2
time step continuity errors : sum local = 0.000123351, global = 2.84844e-07, cumulative = -7.29112e-06
DICPCG:  Solving for p_rgh, Initial residual = 0.000140269, Final residual = 6.77287e-06, No Iterations 12
time step continuity errors : sum local = 8.83084e-06, global = 4.1934e-07, cumulative = -6.87178e-06
DICPCG:  Solving for p_rgh, Initial residual = 5.12429e-05, Final residual = 9.43905e-08, No Iterations 45
time step continuity errors : sum local = 1.25132e-07, global = 3.04755e-09, cumulative = -6.86874e-06
smoothSolver:  Solving for epsilon, Initial residual = 0.00686911, Final residual = 2.10252e-07, No Iterations 5
smoothSolver:  Solving for k, Initial residual = 0.121339, Final residual = 2.61561e-07, No Iterations 7
ExecutionTime = 1.73 s  ClockTime = 2 s

Courant Number mean: 0.0337217 max: 0.232053
Interface Courant Number mean: 0.00136089 max: 0.232053
deltaT = 0.00508038
Time = 0.0245981

PIMPLE: iteration 1
smoothSolver:  Solving for alpha.water, Initial residual = 0.00166856, Final residual = 5.72408e-09, No Iterations 2
Phase-1 volume fraction = 0.130194  Min(alpha.water) = 0  Max(alpha.water) = 1
MULES: Correcting alpha.water
MULES: Correcting alpha.water
Phase-1 volume fraction = 0.130194  Min(alpha.water) = -2.61318e-07  Max(alpha.water) = 1
DICPCG:  Solving for p_rgh, Initial residual = 0.00619099, Final residual = 0.000106727, No Iterations 2
time step continuity errors : sum local = 0.000176723, global = 1.93405e-07, cumulative = -6.67533e-06
DICPCG:  Solving for p_rgh, Initial residual = 0.000156662, Final residual = 5.81713e-06, No Iterations 13
time step continuity errors : sum local = 9.61369e-06, global = 4.84873e-07, cumulative = -6.19046e-06
DICPCG:  Solving for p_rgh, Initial residual = 5.56655e-05, Final residual = 8.51995e-08, No Iterations 46
time step continuity errors : sum local = 1.43593e-07, global = -1.09883e-08, cumulative = -6.20145e-06
smoothSolver:  Solving for epsilon, Initial residual = 0.00712768, Final residual = 4.36575e-07, No Iterations 5
smoothSolver:  Solving for k, Initial residual = 0.106782, Final residual = 4.13731e-07, No Iterations 7
ExecutionTime = 1.84 s  ClockTime = 2 s

Courant Number mean: 0.0487511 max: 0.294201
Interface Courant Number mean: 0.00199747 max: 0.294201
deltaT = 0.00635047
Time = 0.0309486

PIMPLE: iteration 1
smoothSolver:  Solving for alpha.water, Initial residual = 0.00254798, Final residual = 3.33208e-13, No Iterations 3
Phase-1 volume fraction = 0.130194  Min(alpha.water) = -1.23889e-14  Max(alpha.water) = 1
MULES: Correcting alpha.water
MULES: Correcting alpha.water
Phase-1 volume fraction = 0.130194  Min(alpha.water) = -2.37254e-06  Max(alpha.water) = 1
DICPCG:  Solving for p_rgh, Initial residual = 0.00811228, Final residual = 0.000138935, No Iterations 2
time step continuity errors : sum local = 0.00032162, global = 1.41773e-07, cumulative = -6.05967e-06
DICPCG:  Solving for p_rgh, Initial residual = 0.000196811, Final residual = 8.38947e-06, No Iterations 13
time step continuity errors : sum local = 1.93419e-05, global = 1.77805e-06, cumulative = -4.28162e-06
DICPCG:  Solving for p_rgh, Initial residual = 6.7214e-05, Final residual = 8.09054e-08, No Iterations 50
time step continuity errors : sum local = 1.91453e-07, global = -2.37298e-08, cumulative = -4.30535e-06
smoothSolver:  Solving for epsilon, Initial residual = 0.00761969, Final residual = 3.38186e-07, No Iterations 6
smoothSolver:  Solving for k, Initial residual = 0.101379, Final residual = 9.57406e-07, No Iterations 7
ExecutionTime = 1.96 s  ClockTime = 2 s

Courant Number mean: 0.0745697 max: 0.425043
Interface Courant Number mean: 0.00307907 max: 0.419929
deltaT = 0.00635047
Time = 0.0372991

PIMPLE: iteration 1
smoothSolver:  Solving for alpha.water, Initial residual = 0.00309907, Final residual = 1.19765e-12, No Iterations 3
Phase-1 volume fraction = 0.130194  Min(alpha.water) = -9.50103e-15  Max(alpha.water) = 1
MULES: Correcting alpha.water
MULES: Correcting alpha.water
Phase-1 volume fraction = 0.130194  Min(alpha.water) = -5.85044e-06  Max(alpha.water) = 1
DICPCG:  Solving for p_rgh, Initial residual = 0.00963367, Final residual = 0.00015186, No Iterations 2
time step continuity errors : sum local = 0.00035469, global = -9.33213e-07, cumulative = -5.23857e-06
DICPCG:  Solving for p_rgh, Initial residual = 0.000218579, Final residual = 1.07682e-05, No Iterations 13
time step continuity errors : sum local = 2.49828e-05, global = 1.85651e-06, cumulative = -3.38206e-06
DICPCG:  Solving for p_rgh, Initial residual = 7.10269e-05, Final residual = 7.97149e-08, No Iterations 51
time step continuity errors : sum local = 1.89918e-07, global = -2.06644e-08, cumulative = -3.40273e-06
smoothSolver:  Solving for epsilon, Initial residual = 0.00670088, Final residual = 2.90419e-07, No Iterations 6
smoothSolver:  Solving for k, Initial residual = 0.0804157, Final residual = 8.66578e-07, No Iterations 7
ExecutionTime = 2.06 s  ClockTime = 2 s

Courant Number mean: 0.0880792 max: 0.467532
Interface Courant Number mean: 0.00392348 max: 0.465145
deltaT = 0.00635047
Time = 0.0436495

PIMPLE: iteration 1
smoothSolver:  Solving for alpha.water, Initial residual = 0.00363953, Final residual = 3.14189e-10, No Iterations 3
Phase-1 volume fraction = 0.130194  Min(alpha.water) = -6.19873e-14  Max(alpha.water) = 1
MULES: Correcting alpha.water
MULES: Correcting alpha.water
Phase-1 volume fraction = 0.130194  Min(alpha.water) = -8.92293e-06  Max(alpha.water) = 1
DICPCG:  Solving for p_rgh, Initial residual = 0.0119869, Final residual = 0.000184585, No Iterations 2
time step continuity errors : sum local = 0.000433498, global = -1.05673e-06, cumulative = -4.45946e-06
DICPCG:  Solving for p_rgh, Initial residual = 0.000258098, Final residual = 1.13583e-05, No Iterations 14
time step continuity errors : sum local = 2.64205e-05, global = 2.08324e-06, cumulative = -2.37622e-06
DICPCG:  Solving for p_rgh, Initial residual = 8.10685e-05, Final residual = 8.39406e-08, No Iterations 51
time step continuity errors : sum local = 2.01211e-07, global = -1.80802e-08, cumulative = -2.3943e-06
smoothSolver:  Solving for epsilon, Initial residual = 0.00695303, Final residual = 2.78941e-07, No Iterations 6
smoothSolver:  Solving for k, Initial residual = 0.0670879, Final residual = 3.09815e-07, No Iterations 8
ExecutionTime = 2.15 s  ClockTime = 3 s

Courant Number mean: 0.101493 max: 0.519906
Interface Courant Number mean: 0.00604666 max: 0.483335
deltaT = 0.00635047
Time = 0.05

PIMPLE: iteration 1
smoothSolver:  Solving for alpha.water, Initial residual = 0.00416937, Final residual = 1.44436e-09, No Iterations 3
Phase-1 volume fraction = 0.130194  Min(alpha.water) = -5.38706e-15  Max(alpha.water) = 1
MULES: Correcting alpha.water
MULES: Correcting alpha.water
Phase-1 volume fraction = 0.130194  Min(alpha.water) = -1.08086e-05  Max(alpha.water) = 1
DICPCG:  Solving for p_rgh, Initial residual = 0.0147401, Final residual = 0.000733073, No Iterations 1
time step continuity errors : sum local = 0.00172943, global = -1.19618e-06, cumulative = -3.59049e-06
DICPCG:  Solving for p_rgh, Initial residual = 0.000916907, Final residual = 4.24244e-05, No Iterations 11
time step continuity errors : sum local = 9.87657e-05, global = 2.08755e-05, cumulative = 1.7285e-05
DICPCG:  Solving for p_rgh, Initial residual = 0.000298009, Final residual = 8.49824e-08, No Iterations 54
time step continuity errors : sum local = 2.04668e-07, global = -2.14947e-08, cumulative = 1.72635e-05
smoothSolver:  Solving for epsilon, Initial residual = 0.00739607, Final residual = 2.93588e-07, No Iterations 6
smoothSolver:  Solving for k, Initial residual = 0.0580352, Final residual = 3.99384e-07, No Iterations 8
ExecutionTime = 2.27 s  ClockTime = 3 s

Courant Number mean: 0.114846 max: 0.592999
Interface Courant Number mean: 0.00700596 max: 0.527448
deltaT = 0.00714286
Time = 0.0571429

PIMPLE: iteration 1
smoothSolver:  Solving for alpha.water, Initial residual = 0.00526621, Final residual = 6.81671e-09, No Iterations 3
Phase-1 volume fraction = 0.130194  Min(alpha.water) = -3.23579e-13  Max(alpha.water) = 1
MULES: Correcting alpha.water
MULES: Correcting alpha.water
Phase-1 volume fraction = 0.130194  Min(alpha.water) = -1.40358e-05  Max(alpha.water) = 1
DICPCG:  Solving for p_rgh, Initial residual = 0.0199146, Final residual = 0.000323021, No Iterations 2
time step continuity errors : sum local = 0.000907342, global = -8.78277e-06, cumulative = 8.48071e-06
DICPCG:  Solving for p_rgh, Initial residual = 0.000443226, Final residual = 1.65119e-05, No Iterations 15
time step continuity errors : sum local = 4.55107e-05, global = 4.50617e-06, cumulative = 1.29869e-05
DICPCG:  Solving for p_rgh, Initial residual = 0.000126978, Final residual = 8.71237e-08, No Iterations 53
time step continuity errors : sum local = 2.5021e-07, global = -2.56103e-08, cumulative = 1.29613e-05
smoothSolver:  Solving for epsilon, Initial residual = 0.00841288, Final residual = 6.86809e-07, No Iterations 6
smoothSolver:  Solving for k, Initial residual = 0.0573949, Final residual = 4.07387e-07, No Iterations 9
ExecutionTime = 2.36 s  ClockTime = 3 s

Courant Number mean: 0.145244 max: 0.789245
Interface Courant Number mean: 0.00920093 max: 0.622096
deltaT = 0.00857143
Time = 0.0657143

PIMPLE: iteration 1
smoothSolver:  Solving for alpha.water, Initial residual = 0.00704143, Final residual = 1.353e-10, No Iterations 4
Phase-1 volume fraction = 0.130194  Min(alpha.water) = -7.52184e-14  Max(alpha.water) = 1
MULES: Correcting alpha.water
MULES: Correcting alpha.water
Phase-1 volume fraction = 0.130194  Min(alpha.water) = -3.00079e-05  Max(alpha.water) = 1
DICPCG:  Solving for p_rgh, Initial residual = 0.0305012, Final residual = 0.000500997, No Iterations 2
time step continuity errors : sum local = 0.00183321, global = -2.73723e-06, cumulative = 1.0224e-05
DICPCG:  Solving for p_rgh, Initial residual = 0.000679301, Final residual = 2.85793e-05, No Iterations 15
time step continuity errors : sum local = 0.000101328, global = 1.24705e-05, cumulative = 2.26946e-05
DICPCG:  Solving for p_rgh, Initial residual = 0.000203583, Final residual = 7.44958e-08, No Iterations 42
time step continuity errors : sum local = 2.78269e-07, global = 4.05361e-09, cumulative = 2.26986e-05
smoothSolver:  Solving for epsilon, Initial residual = 0.00986083, Final residual = 7.52734e-07, No Iterations 7
smoothSolver:  Solving for k, Initial residual = 0.0608957, Final residual = 7.66382e-07, No Iterations 10
ExecutionTime = 2.45 s  ClockTime = 3 s

Courant Number mean: 0.195574 max: 1.15837
Interface Courant Number mean: 0.0144145 max: 0.804572
deltaT = 0.00685714
Time = 0.0725714

PIMPLE: iteration 1
smoothSolver:  Solving for alpha.water, Initial residual = 0.00627038, Final residual = 9.71736e-11, No Iterations 4
Phase-1 volume fraction = 0.130194  Min(alpha.water) = -3.06857e-11  Max(alpha.water) = 1
MULES: Correcting alpha.water
MULES: Correcting alpha.water
Phase-1 volume fraction = 0.130194  Min(alpha.water) = -2.03769e-05  Max(alpha.water) = 1.00123
DICPCG:  Solving for p_rgh, Initial residual = 0.0339779, Final residual = 0.000537575, No Iterations 2
time step continuity errors : sum local = 0.00142705, global = -6.11274e-06, cumulative = 1.65859e-05
DICPCG:  Solving for p_rgh, Initial residual = 0.000689412, Final residual = 2.90725e-05, No Iterations 15
time step continuity errors : sum local = 7.47902e-05, global = 1.22889e-05, cumulative = 2.88748e-05
DICPCG:  Solving for p_rgh, Initial residual = 0.00020073, Final residual = 9.09912e-08, No Iterations 54
time step continuity errors : sum local = 2.44112e-07, global = -1.91968e-08, cumulative = 2.88556e-05
smoothSolver:  Solving for epsilon, Initial residual = 0.00833516, Final residual = 7.68815e-07, No Iterations 6
smoothSolver:  Solving for k, Initial residual = 0.0454203, Final residual = 4.5313e-07, No Iterations 9
ExecutionTime = 2.55 s  ClockTime = 3 s

Courant Number mean: 0.170405 max: 1.06478
Interface Courant Number mean: 0.01288 max: 0.70717
deltaT = 0.00685714
Time = 0.0794286

PIMPLE: iteration 1
smoothSolver:  Solving for alpha.water, Initial residual = 0.00679709, Final residual = 1.04155e-10, No Iterations 4
Phase-1 volume fraction = 0.130194  Min(alpha.water) = -2.28859e-11  Max(alpha.water) = 1
MULES: Correcting alpha.water
MULES: Correcting alpha.water
Phase-1 volume fraction = 0.130194  Min(alpha.water) = -2.53884e-05  Max(alpha.water) = 1
DICPCG:  Solving for p_rgh, Initial residual = 0.0226782, Final residual = 0.000470126, No Iterations 2
time step continuity errors : sum local = 0.00127666, global = -7.17584e-06, cumulative = 2.16797e-05
DICPCG:  Solving for p_rgh, Initial residual = 0.000614298, Final residual = 2.9687e-05, No Iterations 15
time step continuity errors : sum local = 7.89847e-05, global = 6.34942e-06, cumulative = 2.80292e-05
DICPCG:  Solving for p_rgh, Initial residual = 0.000183933, Final residual = 9.02955e-08, No Iterations 54
time step continuity errors : sum local = 2.51545e-07, global = -2.16372e-08, cumulative = 2.80075e-05
smoothSolver:  Solving for epsilon, Initial residual = 0.00855841, Final residual = 9.44128e-07, No Iterations 6
smoothSolver:  Solving for k, Initial residual = 0.0430814, Final residual = 5.57606e-07, No Iterations 9
ExecutionTime = 2.65 s  ClockTime = 3 s

Courant Number mean: 0.184051 max: 1.23523
Interface Courant Number mean: 0.013425 max: 0.759761
deltaT = 0.00514286
Time = 0.0845714

PIMPLE: iteration 1
smoothSolver:  Solving for alpha.water, Initial residual = 0.00549113, Final residual = 6.10221e-09, No Iterations 3
Phase-1 volume fraction = 0.130194  Min(alpha.water) = -2.32388e-09  Max(alpha.water) = 1
MULES: Correcting alpha.water
MULES: Correcting alpha.water
Phase-1 volume fraction = 0.130194  Min(alpha.water) = -1.48458e-05  Max(alpha.water) = 1
DICPCG:  Solving for p_rgh, Initial residual = 0.0203719, Final residual = 0.00100998, No Iterations 1
time step continuity errors : sum local = 0.00180861, global = -2.9634e-06, cumulative = 2.50441e-05
DICPCG:  Solving for p_rgh, Initial residual = 0.00124217, Final residual = 5.62067e-05, No Iterations 12
time step continuity errors : sum local = 9.85893e-05, global = 2.28909e-05, cumulative = 4.7935e-05
DICPCG:  Solving for p_rgh, Initial residual = 0.000332115, Final residual = 7.51375e-08, No Iterations 54
time step continuity errors : sum local = 1.36461e-07, global = -1.17343e-08, cumulative = 4.79233e-05
smoothSolver:  Solving for epsilon, Initial residual = 0.00695373, Final residual = 8.21245e-07, No Iterations 5
smoothSolver:  Solving for k, Initial residual = 0.0315288, Final residual = 8.00031e-07, No Iterations 7
ExecutionTime = 2.75 s  ClockTime = 3 s

Courant Number mean: 0.145962 max: 1.0261
Interface Courant Number mean: 0.0105189 max: 0.572802
deltaT = 0.00514286
Time = 0.0897143

PIMPLE: iteration 1
smoothSolver:  Solving for alpha.water, Initial residual = 0.0058018, Final residual = 6.59902e-09, No Iterations 3
Phase-1 volume fraction = 0.130194  Min(alpha.water) = -1.88063e-09  Max(alpha.water) = 1
MULES: Correcting alpha.water
MULES: Correcting alpha.water
Phase-1 volume fraction = 0.130194  Min(alpha.water) = -2.27165e-05  Max(alpha.water) = 1
DICPCG:  Solving for p_rgh, Initial residual = 0.0240625, Final residual = 0.000376137, No Iterations 2
time step continuity errors : sum local = 0.000672055, global = -7.4856e-06, cumulative = 4.04377e-05
DICPCG:  Solving for p_rgh, Initial residual = 0.000499076, Final residual = 2.23862e-05, No Iterations 15
time step continuity errors : sum local = 3.90192e-05, global = 2.22833e-06, cumulative = 4.2666e-05
DICPCG:  Solving for p_rgh, Initial residual = 0.000136914, Final residual = 7.32576e-08, No Iterations 53
time step continuity errors : sum local = 1.32752e-07, global = -1.27453e-08, cumulative = 4.26533e-05
smoothSolver:  Solving for epsilon, Initial residual = 0.00717828, Final residual = 9.76144e-07, No Iterations 5
smoothSolver:  Solving for k, Initial residual = 0.0309312, Final residual = 9.3506e-07, No Iterations 7
ExecutionTime = 2.85 s  ClockTime = 3 s

Courant Number mean: 0.153862 max: 1.15067
Interface Courant Number mean: 0.0109744 max: 0.58376
deltaT = 0.00514286
Time = 0.0948571

PIMPLE: iteration 1
smoothSolver:  Solving for alpha.water, Initial residual = 0.00609421, Final residual = 8.04572e-09, No Iterations 3
Phase-1 volume fraction = 0.130194  Min(alpha.water) = -1.50544e-09  Max(alpha.water) = 1
MULES: Correcting alpha.water
MULES: Correcting alpha.water
Phase-1 volume fraction = 0.130194  Min(alpha.water) = -2.53649e-05  Max(alpha.water) = 1.00038
DICPCG:  Solving for p_rgh, Initial residual = 0.0290871, Final residual = 0.00047927, No Iterations 2
time step continuity errors : sum local = 0.000848312, global = -1.08343e-06, cumulative = 4.15699e-05
DICPCG:  Solving for p_rgh, Initial residual = 0.000610529, Final residual = 2.91666e-05, No Iterations 15
time step continuity errors : sum local = 5.0233e-05, global = 9.12648e-06, cumulative = 5.06963e-05
DICPCG:  Solving for p_rgh, Initial residual = 0.000173538, Final residual = 9.56486e-08, No Iterations 53
time step continuity errors : sum local = 1.71467e-07, global = -1.40681e-08, cumulative = 5.06823e-05
smoothSolver:  Solving for epsilon, Initial residual = 0.00747266, Final residual = 2.58924e-07, No Iterations 6
smoothSolver:  Solving for k, Initial residual = 0.0303778, Final residual = 3.00833e-07, No Iterations 8
ExecutionTime = 2.95 s  ClockTime = 3 s

Courant Number mean: 0.16142 max: 1.30372
Interface Courant Number mean: 0.0122134 max: 0.633369
deltaT = 0.00514286
Time = 0.1

PIMPLE: iteration 1
smoothSolver:  Solving for alpha.water, Initial residual = 0.0063769, Final residual = 4.82299e-11, No Iterations 4
Phase-1 volume fraction = 0.130194  Min(alpha.water) = -1.19408e-09  Max(alpha.water) = 1
MULES: Correcting alpha.water
MULES: Correcting alpha.water
Phase-1 volume fraction = 0.130194  Min(alpha.water) = -2.5557e-05  Max(alpha.water) = 1
DICPCG:  Solving for p_rgh, Initial residual = 0.0248963, Final residual = 0.000488318, No Iterations 2
time step continuity errors : sum local = 0.000887614, global = -4.37353e-06, cumulative = 4.63088e-05
DICPCG:  Solving for p_rgh, Initial residual = 0.000620197, Final residual = 3.0574e-05, No Iterations 15
time step continuity errors : sum local = 5.44066e-05, global = 6.0935e-06, cumulative = 5.24023e-05
DICPCG:  Solving for p_rgh, Initial residual = 0.000170221, Final residual = 6.32665e-08, No Iterations 54
time step continuity errors : sum local = 1.17084e-07, global = -7.62923e-09, cumulative = 5.23946e-05
smoothSolver:  Solving for epsilon, Initial residual = 0.00780534, Final residual = 3.07796e-07, No Iterations 6
smoothSolver:  Solving for k, Initial residual = 0.0298282, Final residual = 3.44593e-07, No Iterations 8
ExecutionTime = 3.08 s  ClockTime = 3 s

Courant Number mean: 0.168667 max: 1.48852
Interface Courant Number mean: 0.0126247 max: 0.622025
deltaT = 0.00357143
Time = 0.103571

PIMPLE: iteration 1
smoothSolver:  Solving for alpha.water, Initial residual = 0.00463045, Final residual = 1.73707e-09, No Iterations 3
Phase-1 volume fraction = 0.130194  Min(alpha.water) = -8.47099e-08  Max(alpha.water) = 1
MULES: Correcting alpha.water
MULES: Correcting alpha.water
Phase-1 volume fraction = 0.130194  Min(alpha.water) = -2.52145e-06  Max(alpha.water) = 1
DICPCG:  Solving for p_rgh, Initial residual = 0.0169129, Final residual = 0.000780111, No Iterations 1
time step continuity errors : sum local = 0.000816742, global = -1.90424e-06, cumulative = 5.04904e-05
DICPCG:  Solving for p_rgh, Initial residual = 0.000940623, Final residual = 4.4025e-05, No Iterations 12
time step continuity errors : sum local = 4.53218e-05, global = 9.92225e-06, cumulative = 6.04126e-05
DICPCG:  Solving for p_rgh, Initial residual = 0.000227833, Final residual = 9.65722e-08, No Iterations 52
time step continuity errors : sum local = 1.02081e-07, global = -8.49335e-09, cumulative = 6.04041e-05
smoothSolver:  Solving for epsilon, Initial residual = 0.0059831, Final residual = 1.64996e-07, No Iterations 5
smoothSolver:  Solving for k, Initial residual = 0.0205173, Final residual = 4.11375e-07, No Iterations 6
ExecutionTime = 3.19 s  ClockTime = 4 s

Courant Number mean: 0.12066 max: 1.12015
Interface Courant Number mean: 0.00848383 max: 0.441435
deltaT = 0.00309524
Time = 0.106667

PIMPLE: iteration 1
smoothSolver:  Solving for alpha.water, Initial residual = 0.004148, Final residual = 8.00798e-10, No Iterations 3
Phase-1 volume fraction = 0.130194  Min(alpha.water) = -7.25811e-08  Max(alpha.water) = 1
MULES: Correcting alpha.water
MULES: Correcting alpha.water
Phase-1 volume fraction = 0.130194  Min(alpha.water) = -5.18177e-06  Max(alpha.water) = 1
DICPCG:  Solving for p_rgh, Initial residual = 0.0164935, Final residual = 0.000770947, No Iterations 1
time step continuity errors : sum local = 0.000641516, global = -2.35367e-06, cumulative = 5.80505e-05
DICPCG:  Solving for p_rgh, Initial residual = 0.000911494, Final residual = 3.99643e-05, No Iterations 12
time step continuity errors : sum local = 3.27039e-05, global = 6.78366e-06, cumulative = 6.48341e-05
DICPCG:  Solving for p_rgh, Initial residual = 0.000205009, Final residual = 9.21298e-08, No Iterations 52
time step continuity errors : sum local = 7.73026e-08, global = -4.33679e-09, cumulative = 6.48298e-05
smoothSolver:  Solving for epsilon, Initial residual = 0.00545957, Final residual = 5.21624e-07, No Iterations 4
smoothSolver:  Solving for k, Initial residual = 0.017718, Final residual = 8.85283e-07, No Iterations 5
ExecutionTime = 3.3 s  ClockTime = 4 s

Courant Number mean: 0.107278 max: 1.03936
Interface Courant Number mean: 0.00759462 max: 0.455753
deltaT = 0.00288889
Time = 0.109556

PIMPLE: iteration 1
smoothSolver:  Solving for alpha.water, Initial residual = 0.0039847, Final residual = 5.95702e-10, No Iterations 3
Phase-1 volume fraction = 0.130194  Min(alpha.water) = -6.25412e-08  Max(alpha.water) = 1
MULES: Correcting alpha.water
MULES: Correcting alpha.water
Phase-1 volume fraction = 0.130194  Min(alpha.water) = -6.78675e-06  Max(alpha.water) = 1
DICPCG:  Solving for p_rgh, Initial residual = 0.0179437, Final residual = 0.000892984, No Iterations 1
time step continuity errors : sum local = 0.00066276, global = -1.5585e-06, cumulative = 6.32713e-05
DICPCG:  Solving for p_rgh, Initial residual = 0.00104193, Final residual = 4.37136e-05, No Iterations 12
time step continuity errors : sum local = 3.18675e-05, global = 8.3203e-06, cumulative = 7.15916e-05
DICPCG:  Solving for p_rgh, Initial residual = 0.000210777, Final residual = 9.15244e-08, No Iterations 52
time step continuity errors : sum local = 6.83285e-08, global = -4.09185e-09, cumulative = 7.15875e-05
smoothSolver:  Solving for epsilon, Initial residual = 0.00529468, Final residual = 3.86838e-07, No Iterations 4
smoothSolver:  Solving for k, Initial residual = 0.0165037, Final residual = 6.08012e-07, No Iterations 5
ExecutionTime = 3.4 s  ClockTime = 4 s

Courant Number mean: 0.102432 max: 1.0325
Interface Courant Number mean: 0.0070585 max: 0.425079
deltaT = 0.00288889
Time = 0.112444

PIMPLE: iteration 1
smoothSolver:  Solving for alpha.water, Initial residual = 0.00408825, Final residual = 6.79782e-10, No Iterations 3
Phase-1 volume fraction = 0.130194  Min(alpha.water) = -5.36934e-08  Max(alpha.water) = 1
MULES: Correcting alpha.water
MULES: Correcting alpha.water
Phase-1 volume fraction = 0.130194  Min(alpha.water) = -8.18547e-06  Max(alpha.water) = 1
DICPCG:  Solving for p_rgh, Initial residual = 0.0176793, Final residual = 0.000313459, No Iterations 2
time step continuity errors : sum local = 0.000232277, global = -2.04605e-06, cumulative = 6.95415e-05
DICPCG:  Solving for p_rgh, Initial residual = 0.000392978, Final residual = 1.76651e-05, No Iterations 15
time step continuity errors : sum local = 1.28952e-05, global = 1.87283e-06, cumulative = 7.14143e-05
DICPCG:  Solving for p_rgh, Initial residual = 9.23625e-05, Final residual = 8.31904e-08, No Iterations 51
time step continuity errors : sum local = 6.21665e-08, global = -5.19741e-09, cumulative = 7.14091e-05
smoothSolver:  Solving for epsilon, Initial residual = 0.00545881, Final residual = 4.26627e-07, No Iterations 4
smoothSolver:  Solving for k, Initial residual = 0.0165049, Final residual = 6.5519e-07, No Iterations 5
ExecutionTime = 3.51 s  ClockTime = 4 s

Courant Number mean: 0.104669 max: 1.09757
Interface Courant Number mean: 0.00743057 max: 0.422684
deltaT = 0.00268254
Time = 0.115127

PIMPLE: iteration 1
smoothSolver:  Solving for alpha.water, Initial residual = 0.00388738, Final residual = 5.31541e-10, No Iterations 3
Phase-1 volume fraction = 0.130194  Min(alpha.water) = -4.64161e-08  Max(alpha.water) = 1
MULES: Correcting alpha.water
MULES: Correcting alpha.water
Phase-1 volume fraction = 0.130194  Min(alpha.water) = -5.88826e-06  Max(alpha.water) = 1
DICPCG:  Solving for p_rgh, Initial residual = 0.019143, Final residual = 0.000324163, No Iterations 2
time step continuity errors : sum local = 0.000219412, global = -5.61159e-07, cumulative = 7.08479e-05
DICPCG:  Solving for p_rgh, Initial residual = 0.000396456, Final residual = 1.82891e-05, No Iterations 15
time step continuity errors : sum local = 1.21888e-05, global = 2.15206e-06, cumulative = 7.3e-05
DICPCG:  Solving for p_rgh, Initial residual = 8.5974e-05, Final residual = 7.64863e-08, No Iterations 51
time step continuity errors : sum local = 5.20518e-08, global = -4.0252e-09, cumulative = 7.2996e-05
smoothSolver:  Solving for epsilon, Initial residual = 0.00527765, Final residual = 3.0248e-07, No Iterations 4
smoothSolver:  Solving for k, Initial residual = 0.0153252, Final residual = 4.26767e-07, No Iterations 5
ExecutionTime = 3.61 s  ClockTime = 4 s

Courant Number mean: 0.0990711 max: 1.07443
Interface Courant Number mean: 0.00685335 max: 0.667804
deltaT = 0.00249093
Time = 0.117618

PIMPLE: iteration 1
smoothSolver:  Solving for alpha.water, Initial residual = 0.00368992, Final residual = 3.93526e-10, No Iterations 3
Phase-1 volume fraction = 0.130194  Min(alpha.water) = -4.04216e-08  Max(alpha.water) = 1
MULES: Correcting alpha.water
MULES: Correcting alpha.water
Phase-1 volume fraction = 0.130194  Min(alpha.water) = -6.26988e-07  Max(alpha.water) = 1
DICPCG:  Solving for p_rgh, Initial residual = 0.0133584, Final residual = 0.000640143, No Iterations 1
time step continuity errors : sum local = 0.000387369, global = -5.7393e-07, cumulative = 7.2422e-05
DICPCG:  Solving for p_rgh, Initial residual = 0.000762761, Final residual = 3.05771e-05, No Iterations 12
time step continuity errors : sum local = 1.82932e-05, global = 4.22334e-06, cumulative = 7.66454e-05
DICPCG:  Solving for p_rgh, Initial residual = 0.00016078, Final residual = 9.88007e-08, No Iterations 50
time step continuity errors : sum local = 6.02651e-08, global = -3.68378e-09, cumulative = 7.66417e-05
smoothSolver:  Solving for epsilon, Initial residual = 0.00506943, Final residual = 2.11255e-07, No Iterations 4
smoothSolver:  Solving for k, Initial residual = 0.0142329, Final residual = 2.74153e-07, No Iterations 5
ExecutionTime = 3.71 s  ClockTime = 4 s

Courant Number mean: 0.0935737 max: 1.04454
Interface Courant Number mean: 0.00650204 max: 0.635791
deltaT = 0.00231301
Time = 0.119931

PIMPLE: iteration 1
smoothSolver:  Solving for alpha.water, Initial residual = 0.00350399, Final residual = 2.88509e-10, No Iterations 3
Phase-1 volume fraction = 0.130194  Min(alpha.water) = -3.54761e-08  Max(alpha.water) = 1
MULES: Correcting alpha.water
MULES: Correcting alpha.water
Phase-1 volume fraction = 0.130194  Min(alpha.water) = -6.08772e-07  Max(alpha.water) = 1
DICPCG:  Solving for p_rgh, Initial residual = 0.012587, Final residual = 0.000509649, No Iterations 1
time step continuity errors : sum local = 0.000274043, global = -8.70445e-07, cumulative = 7.57713e-05
DICPCG:  Solving for p_rgh, Initial residual = 0.000599876, Final residual = 2.72902e-05, No Iterations 12
time step continuity errors : sum local = 1.44953e-05, global = 2.83426e-06, cumulative = 7.86055e-05
DICPCG:  Solving for p_rgh, Initial residual = 0.000132322, Final residual = 9.2108e-08, No Iterations 49
time step continuity errors : sum local = 4.9803e-08, global = -1.86414e-09, cumulative = 7.86037e-05
smoothSolver:  Solving for epsilon, Initial residual = 0.00485457, Final residual = 1.45313e-07, No Iterations 4
smoothSolver:  Solving for k, Initial residual = 0.0132233, Final residual = 1.73482e-07, No Iterations 5
ExecutionTime = 3.81 s  ClockTime = 4 s

Courant Number mean: 0.0882504 max: 1.00933
Interface Courant Number mean: 0.00615317 max: 0.735741
deltaT = 0.00231301
Time = 0.122244

PIMPLE: iteration 1
smoothSolver:  Solving for alpha.water, Initial residual = 0.00357336, Final residual = 3.25864e-10, No Iterations 3
Phase-1 volume fraction = 0.130194  Min(alpha.water) = -3.10919e-08  Max(alpha.water) = 1
MULES: Correcting alpha.water
MULES: Correcting alpha.water
Phase-1 volume fraction = 0.130194  Min(alpha.water) = -7.21766e-07  Max(alpha.water) = 1
DICPCG:  Solving for p_rgh, Initial residual = 0.0135963, Final residual = 0.000576724, No Iterations 1
time step continuity errors : sum local = 0.00030948, global = -5.92326e-07, cumulative = 7.80113e-05
DICPCG:  Solving for p_rgh, Initial residual = 0.000673987, Final residual = 2.28761e-05, No Iterations 13
time step continuity errors : sum local = 1.21122e-05, global = 2.90709e-06, cumulative = 8.09184e-05
DICPCG:  Solving for p_rgh, Initial residual = 0.000137022, Final residual = 8.69859e-08, No Iterations 50
time step continuity errors : sum local = 4.68919e-08, global = -1.51393e-09, cumulative = 8.09169e-05
smoothSolver:  Solving for epsilon, Initial residual = 0.00497091, Final residual = 1.56401e-07, No Iterations 4
smoothSolver:  Solving for k, Initial residual = 0.0132417, Final residual = 1.83857e-07, No Iterations 5
ExecutionTime = 3.9 s  ClockTime = 4 s

Courant Number mean: 0.0896156 max: 1.05048
Interface Courant Number mean: 0.00621938 max: 0.753087
deltaT = 0.00213508
Time = 0.124379

PIMPLE: iteration 1
smoothSolver:  Solving for alpha.water, Initial residual = 0.00335538, Final residual = 2.22768e-10, No Iterations 3
Phase-1 volume fraction = 0.130194  Min(alpha.water) = -2.74737e-08  Max(alpha.water) = 1
MULES: Correcting alpha.water
MULES: Correcting alpha.water
Phase-1 volume fraction = 0.130194  Min(alpha.water) = -6.38717e-07  Max(alpha.water) = 1.00001
DICPCG:  Solving for p_rgh, Initial residual = 0.0140154, Final residual = 0.000630662, No Iterations 1
time step continuity errors : sum local = 0.000295203, global = -5.465e-07, cumulative = 8.03704e-05
DICPCG:  Solving for p_rgh, Initial residual = 0.000725288, Final residual = 3.42124e-05, No Iterations 12
time step continuity errors : sum local = 1.57948e-05, global = 3.11025e-06, cumulative = 8.34807e-05
DICPCG:  Solving for p_rgh, Initial residual = 0.000138616, Final residual = 7.60792e-08, No Iterations 50
time step continuity errors : sum local = 3.56961e-08, global = -2.25001e-09, cumulative = 8.34784e-05
smoothSolver:  Solving for epsilon, Initial residual = 0.00472493, Final residual = 1.02159e-07, No Iterations 4
smoothSolver:  Solving for k, Initial residual = 0.0122392, Final residual = 8.914e-07, No Iterations 4
ExecutionTime = 3.99 s  ClockTime = 4 s

Courant Number mean: 0.0838446 max: 1.00468
Interface Courant Number mean: 0.00586756 max: 0.711693
deltaT = 0.00213508
Time = 0.126514

PIMPLE: iteration 1
smoothSolver:  Solving for alpha.water, Initial residual = 0.00340678, Final residual = 2.43511e-10, No Iterations 3
Phase-1 volume fraction = 0.130194  Min(alpha.water) = -2.42474e-08  Max(alpha.water) = 1
MULES: Correcting alpha.water
MULES: Correcting alpha.water
Phase-1 volume fraction = 0.130194  Min(alpha.water) = -7.29818e-07  Max(alpha.water) = 1
DICPCG:  Solving for p_rgh, Initial residual = 0.0150352, Final residual = 0.000745761, No Iterations 1
time step continuity errors : sum local = 0.000347546, global = -6.60445e-07, cumulative = 8.2818e-05
DICPCG:  Solving for p_rgh, Initial residual = 0.000854777, Final residual = 4.02424e-05, No Iterations 12
time step continuity errors : sum local = 1.85201e-05, global = 3.62367e-06, cumulative = 8.64416e-05
DICPCG:  Solving for p_rgh, Initial residual = 0.000157011, Final residual = 8.3434e-08, No Iterations 50
time step continuity errors : sum local = 3.90154e-08, global = -2.14916e-09, cumulative = 8.64395e-05
smoothSolver:  Solving for epsilon, Initial residual = 0.00481006, Final residual = 1.09092e-07, No Iterations 4
smoothSolver:  Solving for k, Initial residual = 0.0122572, Final residual = 9.32247e-07, No Iterations 4
ExecutionTime = 4.09 s  ClockTime = 4 s

Courant Number mean: 0.0849305 max: 1.04281
Interface Courant Number mean: 0.00562474 max: 0.731701
deltaT = 0.00213508
Time = 0.128649

PIMPLE: iteration 1
smoothSolver:  Solving for alpha.water, Initial residual = 0.00345728, Final residual = 2.72293e-10, No Iterations 3
Phase-1 volume fraction = 0.130194  Min(alpha.water) = -2.13773e-08  Max(alpha.water) = 1
MULES: Correcting alpha.water
MULES: Correcting alpha.water
Phase-1 volume fraction = 0.130194  Min(alpha.water) = -7.78922e-07  Max(alpha.water) = 1
DICPCG:  Solving for p_rgh, Initial residual = 0.0137727, Final residual = 0.000262144, No Iterations 2
time step continuity errors : sum local = 0.000122834, global = -7.5877e-07, cumulative = 8.56807e-05
DICPCG:  Solving for p_rgh, Initial residual = 0.000325421, Final residual = 1.42408e-05, No Iterations 15
time step continuity errors : sum local = 6.59481e-06, global = 1.20111e-06, cumulative = 8.68818e-05
DICPCG:  Solving for p_rgh, Initial residual = 6.6369e-05, Final residual = 8.75893e-08, No Iterations 50
time step continuity errors : sum local = 4.11807e-08, global = -8.09103e-10, cumulative = 8.6881e-05
smoothSolver:  Solving for epsilon, Initial residual = 0.00488936, Final residual = 1.16172e-07, No Iterations 4
smoothSolver:  Solving for k, Initial residual = 0.0122682, Final residual = 9.73635e-07, No Iterations 4
ExecutionTime = 4.19 s  ClockTime = 5 s

Courant Number mean: 0.0859877 max: 1.08419
Interface Courant Number mean: 0.00583113 max: 0.752744
deltaT = 0.00194098
Time = 0.13059

PIMPLE: iteration 1
smoothSolver:  Solving for alpha.water, Initial residual = 0.00318676, Final residual = 1.66926e-10, No Iterations 3
Phase-1 volume fraction = 0.130194  Min(alpha.water) = -5.07531e-08  Max(alpha.water) = 1
MULES: Correcting alpha.water
MULES: Correcting alpha.water
Phase-1 volume fraction = 0.130194  Min(alpha.water) = -5.81829e-07  Max(alpha.water) = 1.00001
DICPCG:  Solving for p_rgh, Initial residual = 0.0147502, Final residual = 0.000245883, No Iterations 2
time step continuity errors : sum local = 0.000100535, global = -2.70404e-07, cumulative = 8.66106e-05
DICPCG:  Solving for p_rgh, Initial residual = 0.000301282, Final residual = 1.34731e-05, No Iterations 15
time step continuity errors : sum local = 5.44579e-06, global = 1.13084e-06, cumulative = 8.77414e-05
DICPCG:  Solving for p_rgh, Initial residual = 5.84164e-05, Final residual = 7.16657e-08, No Iterations 50
time step continuity errors : sum local = 2.93569e-08, global = -3.51514e-10, cumulative = 8.77411e-05
smoothSolver:  Solving for epsilon, Initial residual = 0.00456736, Final residual = 8.16062e-07, No Iterations 3
smoothSolver:  Solving for k, Initial residual = 0.0111588, Final residual = 5.67536e-07, No Iterations 4
ExecutionTime = 4.31 s  ClockTime = 5 s

Courant Number mean: 0.0790069 max: 1.01952
Interface Courant Number mean: 0.00495897 max: 0.701838
deltaT = 0.00194098
Time = 0.132531

PIMPLE: iteration 1
smoothSolver:  Solving for alpha.water, Initial residual = 0.00322792, Final residual = 1.81708e-10, No Iterations 3
Phase-1 volume fraction = 0.130194  Min(alpha.water) = -4.91069e-08  Max(alpha.water) = 1
MULES: Correcting alpha.water
MULES: Correcting alpha.water
Phase-1 volume fraction = 0.130194  Min(alpha.water) = -5.67066e-07  Max(alpha.water) = 1
DICPCG:  Solving for p_rgh, Initial residual = 0.0130836, Final residual = 0.000586265, No Iterations 1
time step continuity errors : sum local = 0.000241836, global = -2.60648e-07, cumulative = 8.74804e-05
DICPCG:  Solving for p_rgh, Initial residual = 0.000691355, Final residual = 2.58077e-05, No Iterations 13
time step continuity errors : sum local = 1.05475e-05, global = 2.00644e-06, cumulative = 8.94869e-05
DICPCG:  Solving for p_rgh, Initial residual = 0.000128151, Final residual = 8.14489e-08, No Iterations 50
time step continuity errors : sum local = 3.37416e-08, global = -1.46593e-09, cumulative = 8.94854e-05
smoothSolver:  Solving for epsilon, Initial residual = 0.00465549, Final residual = 8.54549e-07, No Iterations 3
smoothSolver:  Solving for k, Initial residual = 0.0111748, Final residual = 5.9031e-07, No Iterations 4
ExecutionTime = 4.42 s  ClockTime = 5 s

Courant Number mean: 0.0798538 max: 1.0563
Interface Courant Number mean: 0.00498075 max: 0.718169
deltaT = 0.00174689
Time = 0.134278

PIMPLE: iteration 1
smoothSolver:  Solving for alpha.water, Initial residual = 0.00295077, Final residual = 1.02745e-10, No Iterations 3
Phase-1 volume fraction = 0.130194  Min(alpha.water) = -4.752e-08  Max(alpha.water) = 1
MULES: Correcting alpha.water
MULES: Correcting alpha.water
Phase-1 volume fraction = 0.130194  Min(alpha.water) = -3.76374e-07  Max(alpha.water) = 1
DICPCG:  Solving for p_rgh, Initial residual = 0.0103533, Final residual = 0.00036334, No Iterations 1
time step continuity errors : sum local = 0.000126361, global = -3.25833e-07, cumulative = 8.91596e-05
DICPCG:  Solving for p_rgh, Initial residual = 0.000429646, Final residual = 1.59777e-05, No Iterations 13
time step continuity errors : sum local = 5.50414e-06, global = 1.08127e-06, cumulative = 9.02409e-05
DICPCG:  Solving for p_rgh, Initial residual = 8.65897e-05, Final residual = 7.58897e-08, No Iterations 49
time step continuity errors : sum local = 2.64534e-08, global = -1.05559e-10, cumulative = 9.02408e-05
smoothSolver:  Solving for epsilon, Initial residual = 0.00428359, Final residual = 5.17272e-07, No Iterations 3
smoothSolver:  Solving for k, Initial residual = 0.0100633, Final residual = 3.17095e-07, No Iterations 4
ExecutionTime = 4.54 s  ClockTime = 5 s

Courant Number mean: 0.072547 max: 0.979037
Interface Courant Number mean: 0.00499679 max: 0.658088
deltaT = 0.00174689
Time = 0.136025

PIMPLE: iteration 1
smoothSolver:  Solving for alpha.water, Initial residual = 0.00298696, Final residual = 1.12612e-10, No Iterations 3
Phase-1 volume fraction = 0.130194  Min(alpha.water) = -4.58549e-08  Max(alpha.water) = 1
MULES: Correcting alpha.water
MULES: Correcting alpha.water
Phase-1 volume fraction = 0.130194  Min(alpha.water) = -3.60218e-07  Max(alpha.water) = 1
DICPCG:  Solving for p_rgh, Initial residual = 0.0109671, Final residual = 0.000416381, No Iterations 1
time step continuity errors : sum local = 0.000144523, global = -1.79687e-07, cumulative = 9.00611e-05
DICPCG:  Solving for p_rgh, Initial residual = 0.000487288, Final residual = 1.91651e-05, No Iterations 13
time step continuity errors : sum local = 6.58663e-06, global = 1.10523e-06, cumulative = 9.11663e-05
DICPCG:  Solving for p_rgh, Initial residual = 9.63865e-05, Final residual = 8.97325e-08, No Iterations 49
time step continuity errors : sum local = 3.12142e-08, global = 4.29327e-10, cumulative = 9.11667e-05
smoothSolver:  Solving for epsilon, Initial residual = 0.00432885, Final residual = 5.35461e-07, No Iterations 3
smoothSolver:  Solving for k, Initial residual = 0.0100696, Final residual = 3.28001e-07, No Iterations 4
ExecutionTime = 4.65 s  ClockTime = 5 s

Courant Number mean: 0.0732129 max: 1.0089
Interface Courant Number mean: 0.00503372 max: 0.789127
deltaT = 0.00174689
Time = 0.137772

PIMPLE: iteration 1
smoothSolver:  Solving for alpha.water, Initial residual = 0.00301706, Final residual = 1.22133e-10, No Iterations 3
Phase-1 volume fraction = 0.130194  Min(alpha.water) = -4.43063e-08  Max(alpha.water) = 1
MULES: Correcting alpha.water
MULES: Correcting alpha.water
Phase-1 volume fraction = 0.130194  Min(alpha.water) = -3.40317e-07  Max(alpha.water) = 1
DICPCG:  Solving for p_rgh, Initial residual = 0.0115822, Final residual = 0.00047279, No Iterations 1
time step continuity errors : sum local = 0.000163675, global = -1.83798e-07, cumulative = 9.09829e-05
DICPCG:  Solving for p_rgh, Initial residual = 0.000550755, Final residual = 2.17168e-05, No Iterations 13
time step continuity errors : sum local = 7.44134e-06, global = 1.2977e-06, cumulative = 9.22806e-05
DICPCG:  Solving for p_rgh, Initial residual = 0.000104358, Final residual = 9.93311e-08, No Iterations 49
time step continuity errors : sum local = 3.44513e-08, global = 2.37015e-10, cumulative = 9.22809e-05
smoothSolver:  Solving for epsilon, Initial residual = 0.00437466, Final residual = 5.53306e-07, No Iterations 3
smoothSolver:  Solving for k, Initial residual = 0.0100752, Final residual = 3.3901e-07, No Iterations 4
ExecutionTime = 4.75 s  ClockTime = 5 s

Courant Number mean: 0.0738534 max: 1.03963
Interface Courant Number mean: 0.00508833 max: 0.80358
deltaT = 0.00174689
Time = 0.139519

PIMPLE: iteration 1
smoothSolver:  Solving for alpha.water, Initial residual = 0.00304096, Final residual = 1.296e-10, No Iterations 3
Phase-1 volume fraction = 0.130194  Min(alpha.water) = -4.26993e-08  Max(alpha.water) = 1
MULES: Correcting alpha.water
MULES: Correcting alpha.water
Phase-1 volume fraction = 0.130194  Min(alpha.water) = -4.11259e-07  Max(alpha.water) = 1.00001
DICPCG:  Solving for p_rgh, Initial residual = 0.0124425, Final residual = 0.000552238, No Iterations 1
time step continuity errors : sum local = 0.000190533, global = -2.28578e-07, cumulative = 9.20523e-05
DICPCG:  Solving for p_rgh, Initial residual = 0.000638729, Final residual = 3.17184e-05, No Iterations 12
time step continuity errors : sum local = 1.08278e-05, global = 1.52191e-06, cumulative = 9.35742e-05
DICPCG:  Solving for p_rgh, Initial residual = 0.000120565, Final residual = 7.88343e-08, No Iterations 50
time step continuity errors : sum local = 2.72445e-08, global = -7.17388e-10, cumulative = 9.35735e-05
smoothSolver:  Solving for epsilon, Initial residual = 0.00441193, Final residual = 5.69036e-07, No Iterations 3
smoothSolver:  Solving for k, Initial residual = 0.0100776, Final residual = 3.49981e-07, No Iterations 4
ExecutionTime = 4.86 s  ClockTime = 5 s

Courant Number mean: 0.0744599 max: 1.06996
Interface Courant Number mean: 0.0049255 max: 0.813531
deltaT = 0.00174689
Time = 0.141266

PIMPLE: iteration 1
smoothSolver:  Solving for alpha.water, Initial residual = 0.0030763, Final residual = 1.37092e-10, No Iterations 3
Phase-1 volume fraction = 0.130194  Min(alpha.water) = -4.10217e-08  Max(alpha.water) = 1
MULES: Correcting alpha.water
MULES: Correcting alpha.water
Phase-1 volume fraction = 0.130194  Min(alpha.water) = -4.9074e-07  Max(alpha.water) = 1.00001
DICPCG:  Solving for p_rgh, Initial residual = 0.0118472, Final residual = 0.000224277, No Iterations 2
time step continuity errors : sum local = 7.71708e-05, global = -2.83081e-07, cumulative = 9.32904e-05
DICPCG:  Solving for p_rgh, Initial residual = 0.000276517, Final residual = 1.18049e-05, No Iterations 14
time step continuity errors : sum local = 4.02855e-06, global = 1.10535e-06, cumulative = 9.43958e-05
DICPCG:  Solving for p_rgh, Initial residual = 5.36954e-05, Final residual = 8.78617e-08, No Iterations 49
time step continuity errors : sum local = 3.03467e-08, global = -1.06991e-09, cumulative = 9.43947e-05
smoothSolver:  Solving for epsilon, Initial residual = 0.00444903, Final residual = 5.82927e-07, No Iterations 3
smoothSolver:  Solving for k, Initial residual = 0.0100888, Final residual = 3.61034e-07, No Iterations 4
ExecutionTime = 4.97 s  ClockTime = 5 s

Courant Number mean: 0.0750427 max: 1.09746
Interface Courant Number mean: 0.0051987 max: 0.934799
deltaT = 0.00174689
Time = 0.143012

PIMPLE: iteration 1
smoothSolver:  Solving for alpha.water, Initial residual = 0.00311288, Final residual = 1.46914e-10, No Iterations 3
Phase-1 volume fraction = 0.130194  Min(alpha.water) = -3.92598e-08  Max(alpha.water) = 1
MULES: Correcting alpha.water
MULES: Correcting alpha.water
Phase-1 volume fraction = 0.130194  Min(alpha.water) = -5.76337e-07  Max(alpha.water) = 1
DICPCG:  Solving for p_rgh, Initial residual = 0.0114094, Final residual = 0.000259962, No Iterations 2
time step continuity errors : sum local = 8.97105e-05, global = -2.08773e-07, cumulative = 9.41859e-05
DICPCG:  Solving for p_rgh, Initial residual = 0.000311799, Final residual = 1.29913e-05, No Iterations 14
time step continuity errors : sum local = 4.45718e-06, global = 1.18526e-06, cumulative = 9.53712e-05
DICPCG:  Solving for p_rgh, Initial residual = 5.84863e-05, Final residual = 9.61239e-08, No Iterations 49
time step continuity errors : sum local = 3.33906e-08, global = -1.61372e-09, cumulative = 9.53696e-05
smoothSolver:  Solving for epsilon, Initial residual = 0.0044886, Final residual = 5.93792e-07, No Iterations 3
smoothSolver:  Solving for k, Initial residual = 0.0101061, Final residual = 3.71678e-07, No Iterations 4
ExecutionTime = 5.07 s  ClockTime = 5 s

Courant Number mean: 0.0756129 max: 1.11999
Interface Courant Number mean: 0.00509047 max: 0.938981
deltaT = 0.00174689
Time = 0.144759

PIMPLE: iteration 1
smoothSolver:  Solving for alpha.water, Initial residual = 0.00314104, Final residual = 1.58389e-10, No Iterations 3
Phase-1 volume fraction = 0.130194  Min(alpha.water) = -3.74056e-08  Max(alpha.water) = 1
MULES: Correcting alpha.water
MULES: Correcting alpha.water
Phase-1 volume fraction = 0.130194  Min(alpha.water) = -6.04831e-07  Max(alpha.water) = 1
DICPCG:  Solving for p_rgh, Initial residual = 0.0143016, Final residual = 0.000345613, No Iterations 2
time step continuity errors : sum local = 0.000123205, global = -2.3139e-07, cumulative = 9.51382e-05
DICPCG:  Solving for p_rgh, Initial residual = 0.000411214, Final residual = 1.88122e-05, No Iterations 15
time step continuity errors : sum local = 6.64818e-06, global = 1.19153e-06, cumulative = 9.63297e-05
DICPCG:  Solving for p_rgh, Initial residual = 7.55816e-05, Final residual = 8.86573e-08, No Iterations 50
time step continuity errors : sum local = 3.17271e-08, global = -2.50932e-09, cumulative = 9.63272e-05
smoothSolver:  Solving for epsilon, Initial residual = 0.00453668, Final residual = 6.02455e-07, No Iterations 3
smoothSolver:  Solving for k, Initial residual = 0.0101148, Final residual = 3.82259e-07, No Iterations 4
ExecutionTime = 5.18 s  ClockTime = 6 s

Courant Number mean: 0.076183 max: 1.1362
Interface Courant Number mean: 0.00517469 max: 0.934852
deltaT = 0.00174689
Time = 0.146506

PIMPLE: iteration 1
smoothSolver:  Solving for alpha.water, Initial residual = 0.00316486, Final residual = 1.68395e-10, No Iterations 3
Phase-1 volume fraction = 0.130194  Min(alpha.water) = -3.55199e-08  Max(alpha.water) = 1
MULES: Correcting alpha.water
MULES: Correcting alpha.water
Phase-1 volume fraction = 0.130194  Min(alpha.water) = -5.87296e-07  Max(alpha.water) = 1
DICPCG:  Solving for p_rgh, Initial residual = 0.013039, Final residual = 0.000339817, No Iterations 2
time step continuity errors : sum local = 0.000121821, global = -2.77892e-07, cumulative = 9.60493e-05
DICPCG:  Solving for p_rgh, Initial residual = 0.000395799, Final residual = 1.50864e-05, No Iterations 14
time step continuity errors : sum local = 5.37892e-06, global = 1.27242e-06, cumulative = 9.73217e-05
DICPCG:  Solving for p_rgh, Initial residual = 7.10515e-05, Final residual = 8.04296e-08, No Iterations 50
time step continuity errors : sum local = 2.90803e-08, global = -2.69621e-09, cumulative = 9.7319e-05
smoothSolver:  Solving for epsilon, Initial residual = 0.00457601, Final residual = 6.08659e-07, No Iterations 3
smoothSolver:  Solving for k, Initial residual = 0.0101934, Final residual = 3.92813e-07, No Iterations 4
ExecutionTime = 5.3 s  ClockTime = 6 s

Courant Number mean: 0.0767281 max: 1.13878
Interface Courant Number mean: 0.00520725 max: 0.910668
deltaT = 0.00174689
Time = 0.148253

PIMPLE: iteration 1
smoothSolver:  Solving for alpha.water, Initial residual = 0.00318363, Final residual = 1.76758e-10, No Iterations 3
Phase-1 volume fraction = 0.130194  Min(alpha.water) = -3.36235e-08  Max(alpha.water) = 1
MULES: Correcting alpha.water
MULES: Correcting alpha.water
Phase-1 volume fraction = 0.130194  Min(alpha.water) = -5.65147e-07  Max(alpha.water) = 1
DICPCG:  Solving for p_rgh, Initial residual = 0.0115252, Final residual = 0.000554026, No Iterations 1
time step continuity errors : sum local = 0.00020141, global = -2.62713e-07, cumulative = 9.70563e-05
DICPCG:  Solving for p_rgh, Initial residual = 0.00067031, Final residual = 3.24323e-05, No Iterations 13
time step continuity errors : sum local = 1.17275e-05, global = 1.24492e-06, cumulative = 9.83012e-05
DICPCG:  Solving for p_rgh, Initial residual = 0.000139736, Final residual = 7.27621e-08, No Iterations 51
time step continuity errors : sum local = 2.67759e-08, global = -2.37601e-09, cumulative = 9.82989e-05
smoothSolver:  Solving for epsilon, Initial residual = 0.00467648, Final residual = 6.15128e-07, No Iterations 3
smoothSolver:  Solving for k, Initial residual = 0.0102385, Final residual = 4.03128e-07, No Iterations 4
ExecutionTime = 5.41 s  ClockTime = 6 s

Courant Number mean: 0.0772524 max: 1.12796
Interface Courant Number mean: 0.0050859 max: 1.01465
deltaT = 0.00174689
Time = 0.15

PIMPLE: iteration 1
smoothSolver:  Solving for alpha.water, Initial residual = 0.00322842, Final residual = 1.84666e-10, No Iterations 3
Phase-1 volume fraction = 0.130194  Min(alpha.water) = -1.18907e-07  Max(alpha.water) = 1
MULES: Correcting alpha.water
MULES: Correcting alpha.water
Phase-1 volume fraction = 0.130194  Min(alpha.water) = -5.3293e-07  Max(alpha.water) = 1.00001
DICPCG:  Solving for p_rgh, Initial residual = 0.010539, Final residual = 0.000462237, No Iterations 1
time step continuity errors : sum local = 0.000170014, global = -2.49841e-07, cumulative = 9.8049e-05
DICPCG:  Solving for p_rgh, Initial residual = 0.000577887, Final residual = 2.27512e-05, No Iterations 14
time step continuity errors : sum local = 8.31425e-06, global = 7.65047e-07, cumulative = 9.88141e-05
DICPCG:  Solving for p_rgh, Initial residual = 0.000140248, Final residual = 9.92585e-08, No Iterations 49
time step continuity errors : sum local = 3.69753e-08, global = -4.45005e-09, cumulative = 9.88096e-05
smoothSolver:  Solving for epsilon, Initial residual = 0.00477295, Final residual = 6.21885e-07, No Iterations 3
smoothSolver:  Solving for k, Initial residual = 0.0104313, Final residual = 4.1427e-07, No Iterations 4
ExecutionTime = 5.54 s  ClockTime = 6 s

Courant Number mean: 0.0777713 max: 1.08894
Interface Courant Number mean: 0.00536297 max: 0.965298
deltaT = 0.0016129
Time = 0.151613

PIMPLE: iteration 1
smoothSolver:  Solving for alpha.water, Initial residual = 0.0030296, Final residual = 1.151e-10, No Iterations 3
Phase-1 volume fraction = 0.130194  Min(alpha.water) = -1.07072e-07  Max(alpha.water) = 1
MULES: Correcting alpha.water
MULES: Correcting alpha.water
Phase-1 volume fraction = 0.130194  Min(alpha.water) = -3.54713e-07  Max(alpha.water) = 1.00003
DICPCG:  Solving for p_rgh, Initial residual = 0.0105852, Final residual = 0.00046587, No Iterations 1
time step continuity errors : sum local = 0.000150407, global = -1.39069e-07, cumulative = 9.86705e-05
DICPCG:  Solving for p_rgh, Initial residual = 0.000571914, Final residual = 2.01392e-05, No Iterations 14
time step continuity errors : sum local = 6.45822e-06, global = 7.15286e-07, cumulative = 9.93858e-05
DICPCG:  Solving for p_rgh, Initial residual = 0.000123574, Final residual = 9.96715e-08, No Iterations 49
time step continuity errors : sum local = 3.25361e-08, global = -1.00351e-09, cumulative = 9.93848e-05
smoothSolver:  Solving for epsilon, Initial residual = 0.00453443, Final residual = 4.15653e-07, No Iterations 3
smoothSolver:  Solving for k, Initial residual = 0.00967316, Final residual = 2.57161e-07, No Iterations 4
ExecutionTime = 5.65 s  ClockTime = 6 s

Courant Number mean: 0.0722131 max: 0.966835
Interface Courant Number mean: 0.00512227 max: 0.966835
deltaT = 0.00166852
Time = 0.153281

PIMPLE: iteration 1
smoothSolver:  Solving for alpha.water, Initial residual = 0.00318911, Final residual = 1.48987e-10, No Iterations 3
Phase-1 volume fraction = 0.130194  Min(alpha.water) = -9.60423e-08  Max(alpha.water) = 1
MULES: Correcting alpha.water
MULES: Correcting alpha.water
Phase-1 volume fraction = 0.130194  Min(alpha.water) = -3.66716e-07  Max(alpha.water) = 1.00001
DICPCG:  Solving for p_rgh, Initial residual = 0.0116319, Final residual = 0.000340429, No Iterations 2
time step continuity errors : sum local = 0.000116921, global = -1.37976e-07, cumulative = 9.92468e-05
DICPCG:  Solving for p_rgh, Initial residual = 0.00045281, Final residual = 1.79661e-05, No Iterations 14
time step continuity errors : sum local = 6.14887e-06, global = 8.17886e-07, cumulative = 0.000100065
DICPCG:  Solving for p_rgh, Initial residual = 9.12687e-05, Final residual = 9.79042e-08, No Iterations 49
time step continuity errors : sum local = 3.41104e-08, global = -1.17509e-09, cumulative = 0.000100064
smoothSolver:  Solving for epsilon, Initial residual = 0.0048428, Final residual = 5.07318e-07, No Iterations 3
smoothSolver:  Solving for k, Initial residual = 0.0103089, Final residual = 3.3008e-07, No Iterations 4
ExecutionTime = 5.75 s  ClockTime = 6 s

Courant Number mean: 0.0750878 max: 0.93381
Interface Courant Number mean: 0.00535527 max: 0.93381
deltaT = 0.00179687
Time = 0.155078

PIMPLE: iteration 1
smoothSolver:  Solving for alpha.water, Initial residual = 0.00349041, Final residual = 2.49182e-10, No Iterations 3
Phase-1 volume fraction = 0.130194  Min(alpha.water) = -8.54325e-08  Max(alpha.water) = 1
MULES: Correcting alpha.water
MULES: Correcting alpha.water
Phase-1 volume fraction = 0.130194  Min(alpha.water) = -4.37746e-07  Max(alpha.water) = 1.00001
DICPCG:  Solving for p_rgh, Initial residual = 0.0110622, Final residual = 0.000371216, No Iterations 2
time step continuity errors : sum local = 0.000145919, global = -1.81404e-07, cumulative = 9.98822e-05
DICPCG:  Solving for p_rgh, Initial residual = 0.000518342, Final residual = 1.77022e-05, No Iterations 15
time step continuity errors : sum local = 6.9401e-06, global = 8.18784e-07, cumulative = 0.000100701
DICPCG:  Solving for p_rgh, Initial residual = 0.00011078, Final residual = 9.06624e-08, No Iterations 49
time step continuity errors : sum local = 3.62784e-08, global = -2.39762e-09, cumulative = 0.000100699
smoothSolver:  Solving for epsilon, Initial residual = 0.00579267, Final residual = 7.72134e-07, No Iterations 3
smoothSolver:  Solving for k, Initial residual = 0.0113503, Final residual = 5.44575e-07, No Iterations 4
ExecutionTime = 5.86 s  ClockTime = 6 s

Courant Number mean: 0.0812624 max: 1.00461
Interface Courant Number mean: 0.00613957 max: 1.00461
deltaT = 0.00179687
Time = 0.156875

PIMPLE: iteration 1
smoothSolver:  Solving for alpha.water, Initial residual = 0.00349328, Final residual = 2.59729e-10, No Iterations 3
Phase-1 volume fraction = 0.130194  Min(alpha.water) = -7.59542e-08  Max(alpha.water) = 1
MULES: Correcting alpha.water
MULES: Correcting alpha.water
Phase-1 volume fraction = 0.130194  Min(alpha.water) = -3.85573e-07  Max(alpha.water) = 1.00001
DICPCG:  Solving for p_rgh, Initial residual = 0.0116044, Final residual = 0.000353792, No Iterations 2
time step continuity errors : sum local = 0.000140719, global = -1.81987e-07, cumulative = 0.000100517
DICPCG:  Solving for p_rgh, Initial residual = 0.000491575, Final residual = 1.58439e-05, No Iterations 15
time step continuity errors : sum local = 6.28454e-06, global = 4.75131e-07, cumulative = 0.000100992
DICPCG:  Solving for p_rgh, Initial residual = 0.000104635, Final residual = 8.01999e-08, No Iterations 50
time step continuity errors : sum local = 3.24625e-08, global = -8.09469e-11, cumulative = 0.000100992
smoothSolver:  Solving for epsilon, Initial residual = 0.00585379, Final residual = 8.08602e-07, No Iterations 3
smoothSolver:  Solving for k, Initial residual = 0.0116259, Final residual = 5.65512e-07, No Iterations 4
ExecutionTime = 5.97 s  ClockTime = 6 s

Courant Number mean: 0.0816283 max: 1.00664
Interface Courant Number mean: 0.00613994 max: 0.98858
deltaT = 0.00179687
Time = 0.158672

PIMPLE: iteration 1
smoothSolver:  Solving for alpha.water, Initial residual = 0.00349462, Final residual = 2.68276e-10, No Iterations 3
Phase-1 volume fraction = 0.130194  Min(alpha.water) = -6.74871e-08  Max(alpha.water) = 1
MULES: Correcting alpha.water
MULES: Correcting alpha.water
Phase-1 volume fraction = 0.130194  Min(alpha.water) = -3.28595e-07  Max(alpha.water) = 1.00001
DICPCG:  Solving for p_rgh, Initial residual = 0.0116428, Final residual = 0.000345604, No Iterations 2
time step continuity errors : sum local = 0.000139113, global = -1.0455e-07, cumulative = 0.000100887
DICPCG:  Solving for p_rgh, Initial residual = 0.000459003, Final residual = 1.46274e-05, No Iterations 15
time step continuity errors : sum local = 5.87489e-06, global = 9.16708e-07, cumulative = 0.000101804
DICPCG:  Solving for p_rgh, Initial residual = 8.83741e-05, Final residual = 7.54621e-08, No Iterations 50
time step continuity errors : sum local = 3.09415e-08, global = 2.84469e-11, cumulative = 0.000101804
smoothSolver:  Solving for epsilon, Initial residual = 0.0060244, Final residual = 8.6312e-07, No Iterations 3
smoothSolver:  Solving for k, Initial residual = 0.011845, Final residual = 5.86615e-07, No Iterations 4
ExecutionTime = 6.07 s  ClockTime = 6 s

Courant Number mean: 0.081971 max: 1.00776
Interface Courant Number mean: 0.00643164 max: 1.00776
deltaT = 0.00179687
Time = 0.160469

PIMPLE: iteration 1
smoothSolver:  Solving for alpha.water, Initial residual = 0.00353604, Final residual = 2.76789e-10, No Iterations 3
Phase-1 volume fraction = 0.130194  Min(alpha.water) = -5.9926e-08  Max(alpha.water) = 1
MULES: Correcting alpha.water
MULES: Correcting alpha.water
Phase-1 volume fraction = 0.130194  Min(alpha.water) = -3.3745e-07  Max(alpha.water) = 1
DICPCG:  Solving for p_rgh, Initial residual = 0.0138247, Final residual = 0.000377925, No Iterations 2
time step continuity errors : sum local = 0.000157655, global = -2.27842e-07, cumulative = 0.000101576
DICPCG:  Solving for p_rgh, Initial residual = 0.000495994, Final residual = 1.96076e-05, No Iterations 15
time step continuity errors : sum local = 8.13725e-06, global = 1.55786e-06, cumulative = 0.000103134
DICPCG:  Solving for p_rgh, Initial residual = 0.000100583, Final residual = 7.23468e-08, No Iterations 51
time step continuity errors : sum local = 3.06742e-08, global = -1.13946e-10, cumulative = 0.000103134
smoothSolver:  Solving for epsilon, Initial residual = 0.00624682, Final residual = 9.19542e-07, No Iterations 3
smoothSolver:  Solving for k, Initial residual = 0.0121754, Final residual = 6.04474e-07, No Iterations 4
ExecutionTime = 6.18 s  ClockTime = 7 s

Courant Number mean: 0.0822819 max: 0.992238
Interface Courant Number mean: 0.00676025 max: 0.992238
deltaT = 0.00179687
Time = 0.162266

PIMPLE: iteration 1
smoothSolver:  Solving for alpha.water, Initial residual = 0.00352175, Final residual = 2.8475e-10, No Iterations 3
Phase-1 volume fraction = 0.130194  Min(alpha.water) = -5.31809e-08  Max(alpha.water) = 1
MULES: Correcting alpha.water
MULES: Correcting alpha.water
Phase-1 volume fraction = 0.130194  Min(alpha.water) = -1.63416e-05  Max(alpha.water) = 1
DICPCG:  Solving for p_rgh, Initial residual = 0.0124481, Final residual = 0.000343112, No Iterations 2
time step continuity errors : sum local = 0.000145435, global = -3.89953e-07, cumulative = 0.000102744
DICPCG:  Solving for p_rgh, Initial residual = 0.00045539, Final residual = 1.74438e-05, No Iterations 15
time step continuity errors : sum local = 7.36991e-06, global = 7.06787e-07, cumulative = 0.000103451
DICPCG:  Solving for p_rgh, Initial residual = 9.15889e-05, Final residual = 9.17894e-08, No Iterations 50
time step continuity errors : sum local = 3.95925e-08, global = 2.63667e-10, cumulative = 0.000103451
smoothSolver:  Solving for epsilon, Initial residual = 0.00674487, Final residual = 9.94755e-07, No Iterations 3
smoothSolver:  Solving for k, Initial residual = 0.0124522, Final residual = 6.26126e-07, No Iterations 4
ExecutionTime = 6.29 s  ClockTime = 7 s

Courant Number mean: 0.0825349 max: 0.970604
Interface Courant Number mean: 0.00681956 max: 0.970604
deltaT = 0.00188671
Time = 0.164152

PIMPLE: iteration 1
smoothSolver:  Solving for alpha.water, Initial residual = 0.00374536, Final residual = 3.93878e-10, No Iterations 3
Phase-1 volume fraction = 0.130194  Min(alpha.water) = -4.69273e-08  Max(alpha.water) = 1
MULES: Correcting alpha.water
MULES: Correcting alpha.water
Phase-1 volume fraction = 0.130194  Min(alpha.water) = -3.24769e-05  Max(alpha.water) = 1
DICPCG:  Solving for p_rgh, Initial residual = 0.0106268, Final residual = 0.000291635, No Iterations 2
time step continuity errors : sum local = 0.000136621, global = -2.37211e-07, cumulative = 0.000103214
DICPCG:  Solving for p_rgh, Initial residual = 0.000422578, Final residual = 1.90237e-05, No Iterations 15
time step continuity errors : sum local = 8.88874e-06, global = 5.00295e-07, cumulative = 0.000103714
DICPCG:  Solving for p_rgh, Initial residual = 9.95973e-05, Final residual = 9.05699e-08, No Iterations 50
time step continuity errors : sum local = 4.33385e-08, global = 2.18466e-10, cumulative = 0.000103714
smoothSolver:  Solving for epsilon, Initial residual = 0.00773293, Final residual = 1.11824e-07, No Iterations 4
smoothSolver:  Solving for k, Initial residual = 0.0134892, Final residual = 8.79089e-07, No Iterations 4
ExecutionTime = 6.4 s  ClockTime = 7 s

Courant Number mean: 0.0869235 max: 1.01564
Interface Courant Number mean: 0.00814964 max: 1.01564
deltaT = 0.00188671
Time = 0.166039

PIMPLE: iteration 1
smoothSolver:  Solving for alpha.water, Initial residual = 0.00384583, Final residual = 4.03832e-10, No Iterations 3
Phase-1 volume fraction = 0.130194  Min(alpha.water) = -4.14091e-08  Max(alpha.water) = 1
MULES: Correcting alpha.water
MULES: Correcting alpha.water
Phase-1 volume fraction = 0.130194  Min(alpha.water) = -3.55654e-05  Max(alpha.water) = 1
DICPCG:  Solving for p_rgh, Initial residual = 0.0108626, Final residual = 0.000541674, No Iterations 1
time step continuity errors : sum local = 0.000257479, global = -2.31e-07, cumulative = 0.000103483
DICPCG:  Solving for p_rgh, Initial residual = 0.000681325, Final residual = 2.004e-05, No Iterations 15
time step continuity errors : sum local = 9.46359e-06, global = 5.8649e-07, cumulative = 0.00010407
DICPCG:  Solving for p_rgh, Initial residual = 0.000159404, Final residual = 7.83584e-08, No Iterations 50
time step continuity errors : sum local = 3.78311e-08, global = -2.48556e-09, cumulative = 0.000104067
smoothSolver:  Solving for epsilon, Initial residual = 0.00850981, Final residual = 1.15831e-07, No Iterations 4
smoothSolver:  Solving for k, Initial residual = 0.0138863, Final residual = 8.90846e-07, No Iterations 4
ExecutionTime = 6.51 s  ClockTime = 7 s

Courant Number mean: 0.0871502 max: 0.998217
Interface Courant Number mean: 0.00813927 max: 0.998217
deltaT = 0.00188671
Time = 0.167926

PIMPLE: iteration 1
smoothSolver:  Solving for alpha.water, Initial residual = 0.00390466, Final residual = 4.14606e-10, No Iterations 3
Phase-1 volume fraction = 0.130194  Min(alpha.water) = -3.65493e-08  Max(alpha.water) = 1
MULES: Correcting alpha.water
MULES: Correcting alpha.water
Phase-1 volume fraction = 0.130194  Min(alpha.water) = -2.74384e-05  Max(alpha.water) = 1.00008
DICPCG:  Solving for p_rgh, Initial residual = 0.0107145, Final residual = 0.000265443, No Iterations 2
time step continuity errors : sum local = 0.000127225, global = -2.41608e-07, cumulative = 0.000103825
DICPCG:  Solving for p_rgh, Initial residual = 0.000384638, Final residual = 1.69117e-05, No Iterations 15
time step continuity errors : sum local = 8.0764e-06, global = 2.74314e-07, cumulative = 0.0001041
DICPCG:  Solving for p_rgh, Initial residual = 9.82226e-05, Final residual = 8.65345e-08, No Iterations 50
time step continuity errors : sum local = 4.21954e-08, global = -6.88536e-10, cumulative = 0.000104099
smoothSolver:  Solving for epsilon, Initial residual = 0.00962842, Final residual = 1.15386e-07, No Iterations 4
smoothSolver:  Solving for k, Initial residual = 0.0142488, Final residual = 8.76271e-07, No Iterations 4
ExecutionTime = 6.61 s  ClockTime = 7 s

Courant Number mean: 0.0873682 max: 0.973161
Interface Courant Number mean: 0.0078265 max: 0.973161
deltaT = 0.00188671
Time = 0.169813

PIMPLE: iteration 1
smoothSolver:  Solving for alpha.water, Initial residual = 0.00390349, Final residual = 4.28718e-10, No Iterations 3
Phase-1 volume fraction = 0.130194  Min(alpha.water) = -3.22714e-08  Max(alpha.water) = 1
MULES: Correcting alpha.water
MULES: Correcting alpha.water
Phase-1 volume fraction = 0.130194  Min(alpha.water) = -2.01216e-05  Max(alpha.water) = 1.00002
DICPCG:  Solving for p_rgh, Initial residual = 0.0104939, Final residual = 0.000246081, No Iterations 2
time step continuity errors : sum local = 0.000119816, global = -1.74285e-07, cumulative = 0.000103925
DICPCG:  Solving for p_rgh, Initial residual = 0.000348707, Final residual = 1.68855e-05, No Iterations 15
time step continuity errors : sum local = 8.18165e-06, global = 4.53789e-07, cumulative = 0.000104379
DICPCG:  Solving for p_rgh, Initial residual = 9.27474e-05, Final residual = 7.37768e-08, No Iterations 50
time step continuity errors : sum local = 3.63497e-08, global = -8.86679e-10, cumulative = 0.000104378
smoothSolver:  Solving for epsilon, Initial residual = 0.0104021, Final residual = 1.10422e-07, No Iterations 4
smoothSolver:  Solving for k, Initial residual = 0.0143163, Final residual = 8.41416e-07, No Iterations 4
ExecutionTime = 6.72 s  ClockTime = 7 s

Courant Number mean: 0.0875723 max: 0.966844
Interface Courant Number mean: 0.0077388 max: 0.966844
deltaT = 0.00201249
Time = 0.171825

PIMPLE: iteration 1
smoothSolver:  Solving for alpha.water, Initial residual = 0.00421964, Final residual = 6.6286e-10, No Iterations 3
Phase-1 volume fraction = 0.130194  Min(alpha.water) = -2.82883e-08  Max(alpha.water) = 1
MULES: Correcting alpha.water
MULES: Correcting alpha.water
Phase-1 volume fraction = 0.130194  Min(alpha.water) = -1.90428e-05  Max(alpha.water) = 1.00001
DICPCG:  Solving for p_rgh, Initial residual = 0.0105615, Final residual = 0.000247519, No Iterations 2
time step continuity errors : sum local = 0.000135231, global = -2.66843e-07, cumulative = 0.000104111
DICPCG:  Solving for p_rgh, Initial residual = 0.000360253, Final residual = 1.67427e-05, No Iterations 15
time step continuity errors : sum local = 9.09209e-06, global = 6.72792e-07, cumulative = 0.000104784
[...]
DICPCG:  Solving for p_rgh, Initial residual = 0.000164101, Final residual = 8.13522e-08, No Iterations 45
time step continuity errors : sum local = 9.07889e-08, global = 6.93736e-09, cumulative = 0.00298356
smoothSolver:  Solving for epsilon, Initial residual = 0.0138167, Final residual = 1.27953e-07, No Iterations 4
smoothSolver:  Solving for k, Initial residual = 0.00804455, Final residual = 3.91014e-07, No Iterations 4
ExecutionTime = 38.02 s  ClockTime = 39 s

Courant Number mean: 0.155681 max: 1.00975
Interface Courant Number mean: 0.0382504 max: 0.785697
deltaT = 0.00454545
Time = 0.927273

PIMPLE: iteration 1
smoothSolver:  Solving for alpha.water, Initial residual = 0.0063073, Final residual = 8.14488e-09, No Iterations 3
Phase-1 volume fraction = 0.129402  Min(alpha.water) = -3.49499e-10  Max(alpha.water) = 1
MULES: Correcting alpha.water
MULES: Correcting alpha.water
Phase-1 volume fraction = 0.129402  Min(alpha.water) = -4.71262e-06  Max(alpha.water) = 1
DICPCG:  Solving for p_rgh, Initial residual = 0.017337, Final residual = 0.000549528, No Iterations 2
time step continuity errors : sum local = 0.000613953, global = -3.83737e-07, cumulative = 0.00298317
DICPCG:  Solving for p_rgh, Initial residual = 0.000678877, Final residual = 3.27879e-05, No Iterations 9
time step continuity errors : sum local = 3.66609e-05, global = 3.58814e-07, cumulative = 0.00298353
DICPCG:  Solving for p_rgh, Initial residual = 0.000164734, Final residual = 9.29453e-08, No Iterations 45
time step continuity errors : sum local = 1.03938e-07, global = 4.50174e-09, cumulative = 0.00298353
smoothSolver:  Solving for epsilon, Initial residual = 0.0137392, Final residual = 1.28338e-07, No Iterations 4
smoothSolver:  Solving for k, Initial residual = 0.00792086, Final residual = 3.80013e-07, No Iterations 4
ExecutionTime = 38.11 s  ClockTime = 39 s

Courant Number mean: 0.154905 max: 0.993813
Interface Courant Number mean: 0.0377863 max: 0.77129
deltaT = 0.00454545
Time = 0.931818

PIMPLE: iteration 1
smoothSolver:  Solving for alpha.water, Initial residual = 0.00627921, Final residual = 8.01716e-09, No Iterations 3
Phase-1 volume fraction = 0.129402  Min(alpha.water) = -3.16403e-10  Max(alpha.water) = 1
MULES: Correcting alpha.water
MULES: Correcting alpha.water
Phase-1 volume fraction = 0.129402  Min(alpha.water) = -1.05695e-05  Max(alpha.water) = 1
DICPCG:  Solving for p_rgh, Initial residual = 0.0166662, Final residual = 0.000522914, No Iterations 2
time step continuity errors : sum local = 0.000586461, global = 2.3436e-08, cumulative = 0.00298356
DICPCG:  Solving for p_rgh, Initial residual = 0.000654619, Final residual = 3.0676e-05, No Iterations 9
time step continuity errors : sum local = 3.44555e-05, global = 3.83319e-08, cumulative = 0.0029836
DICPCG:  Solving for p_rgh, Initial residual = 0.000156267, Final residual = 8.33719e-08, No Iterations 45
time step continuity errors : sum local = 9.36137e-08, global = 5.48716e-09, cumulative = 0.0029836
smoothSolver:  Solving for epsilon, Initial residual = 0.0136388, Final residual = 1.30489e-07, No Iterations 4
smoothSolver:  Solving for k, Initial residual = 0.00784604, Final residual = 3.6373e-07, No Iterations 4
ExecutionTime = 38.2 s  ClockTime = 39 s

Courant Number mean: 0.153921 max: 0.973719
Interface Courant Number mean: 0.0372825 max: 0.757341
deltaT = 0.00454545
Time = 0.936364

PIMPLE: iteration 1
smoothSolver:  Solving for alpha.water, Initial residual = 0.00625638, Final residual = 7.98631e-09, No Iterations 3
Phase-1 volume fraction = 0.129402  Min(alpha.water) = -2.57716e-10  Max(alpha.water) = 1
MULES: Correcting alpha.water
MULES: Correcting alpha.water
Phase-1 volume fraction = 0.129402  Min(alpha.water) = -2.04355e-05  Max(alpha.water) = 1
DICPCG:  Solving for p_rgh, Initial residual = 0.0159327, Final residual = 0.000485604, No Iterations 2
time step continuity errors : sum local = 0.000547135, global = 1.87868e-07, cumulative = 0.00298379
DICPCG:  Solving for p_rgh, Initial residual = 0.000602894, Final residual = 2.58951e-05, No Iterations 10
time step continuity errors : sum local = 2.92357e-05, global = 5.34724e-07, cumulative = 0.00298432
DICPCG:  Solving for p_rgh, Initial residual = 0.000144753, Final residual = 8.85552e-08, No Iterations 44
time step continuity errors : sum local = 9.99361e-08, global = 8.80062e-09, cumulative = 0.00298433
smoothSolver:  Solving for epsilon, Initial residual = 0.0135756, Final residual = 1.33937e-07, No Iterations 4
smoothSolver:  Solving for k, Initial residual = 0.00775837, Final residual = 3.46881e-07, No Iterations 4
ExecutionTime = 38.29 s  ClockTime = 39 s

Courant Number mean: 0.152808 max: 0.947638
Interface Courant Number mean: 0.0369418 max: 0.744116
deltaT = 0.00454545
Time = 0.940909

PIMPLE: iteration 1
smoothSolver:  Solving for alpha.water, Initial residual = 0.00620951, Final residual = 7.84553e-09, No Iterations 3
Phase-1 volume fraction = 0.129402  Min(alpha.water) = -6.95234e-09  Max(alpha.water) = 1
MULES: Correcting alpha.water
MULES: Correcting alpha.water
Phase-1 volume fraction = 0.129402  Min(alpha.water) = -3.20527e-05  Max(alpha.water) = 1
DICPCG:  Solving for p_rgh, Initial residual = 0.0160375, Final residual = 0.000452361, No Iterations 2
time step continuity errors : sum local = 0.000511627, global = -9.15475e-09, cumulative = 0.00298432
DICPCG:  Solving for p_rgh, Initial residual = 0.00056921, Final residual = 2.84315e-05, No Iterations 9
time step continuity errors : sum local = 3.21888e-05, global = 3.17728e-07, cumulative = 0.00298464
DICPCG:  Solving for p_rgh, Initial residual = 0.000143313, Final residual = 8.79809e-08, No Iterations 44
time step continuity errors : sum local = 9.95178e-08, global = 9.35864e-09, cumulative = 0.00298465
smoothSolver:  Solving for epsilon, Initial residual = 0.0135379, Final residual = 1.36128e-07, No Iterations 4
smoothSolver:  Solving for k, Initial residual = 0.00763313, Final residual = 3.30383e-07, No Iterations 4
ExecutionTime = 38.39 s  ClockTime = 39 s

Courant Number mean: 0.151719 max: 0.915881
Interface Courant Number mean: 0.0360943 max: 0.732203
deltaT = 0.00454545
Time = 0.945455

PIMPLE: iteration 1
smoothSolver:  Solving for alpha.water, Initial residual = 0.00613411, Final residual = 7.5637e-09, No Iterations 3
Phase-1 volume fraction = 0.129402  Min(alpha.water) = -4.92235e-09  Max(alpha.water) = 1
MULES: Correcting alpha.water
MULES: Correcting alpha.water
Phase-1 volume fraction = 0.129402  Min(alpha.water) = -3.41222e-05  Max(alpha.water) = 1
DICPCG:  Solving for p_rgh, Initial residual = 0.0160508, Final residual = 0.000440634, No Iterations 2
time step continuity errors : sum local = 0.000498276, global = -2.31712e-08, cumulative = 0.00298463
DICPCG:  Solving for p_rgh, Initial residual = 0.000554241, Final residual = 2.47319e-05, No Iterations 9
time step continuity errors : sum local = 2.7967e-05, global = 3.3492e-07, cumulative = 0.00298496
DICPCG:  Solving for p_rgh, Initial residual = 0.000134751, Final residual = 9.20344e-08, No Iterations 43
time step continuity errors : sum local = 1.03948e-07, global = 5.13113e-09, cumulative = 0.00298497
smoothSolver:  Solving for epsilon, Initial residual = 0.0135465, Final residual = 1.38329e-07, No Iterations 4
smoothSolver:  Solving for k, Initial residual = 0.00757276, Final residual = 3.1214e-07, No Iterations 4
ExecutionTime = 38.49 s  ClockTime = 39 s

Courant Number mean: 0.150628 max: 0.877788
Interface Courant Number mean: 0.0363357 max: 0.720744
deltaT = 0.00454545
Time = 0.95

PIMPLE: iteration 1
smoothSolver:  Solving for alpha.water, Initial residual = 0.00609043, Final residual = 7.41712e-09, No Iterations 3
Phase-1 volume fraction = 0.129402  Min(alpha.water) = -3.37786e-09  Max(alpha.water) = 1
MULES: Correcting alpha.water
MULES: Correcting alpha.water
Phase-1 volume fraction = 0.129402  Min(alpha.water) = -2.48893e-05  Max(alpha.water) = 1
DICPCG:  Solving for p_rgh, Initial residual = 0.0155795, Final residual = 0.000430946, No Iterations 2
time step continuity errors : sum local = 0.000485286, global = 1.47547e-07, cumulative = 0.00298512
DICPCG:  Solving for p_rgh, Initial residual = 0.000540168, Final residual = 2.26963e-05, No Iterations 9
time step continuity errors : sum local = 2.55674e-05, global = 4.28308e-07, cumulative = 0.00298554
DICPCG:  Solving for p_rgh, Initial residual = 0.000132661, Final residual = 9.02245e-08, No Iterations 43
time step continuity errors : sum local = 1.01567e-07, global = 5.1041e-09, cumulative = 0.00298555
smoothSolver:  Solving for epsilon, Initial residual = 0.0134373, Final residual = 1.40289e-07, No Iterations 4
smoothSolver:  Solving for k, Initial residual = 0.00747168, Final residual = 2.8973e-07, No Iterations 4
ExecutionTime = 38.59 s  ClockTime = 39 s

Courant Number mean: 0.149435 max: 0.834775
Interface Courant Number mean: 0.035656 max: 0.707936
deltaT = 0.005
Time = 0.955

PIMPLE: iteration 1
smoothSolver:  Solving for alpha.water, Initial residual = 0.00664245, Final residual = 1.94475e-10, No Iterations 4
Phase-1 volume fraction = 0.129402  Min(alpha.water) = -2.00874e-09  Max(alpha.water) = 1
MULES: Correcting alpha.water
MULES: Correcting alpha.water
Phase-1 volume fraction = 0.129402  Min(alpha.water) = -3.50043e-05  Max(alpha.water) = 1
DICPCG:  Solving for p_rgh, Initial residual = 0.0156847, Final residual = 0.00045512, No Iterations 2
time step continuity errors : sum local = 0.000594412, global = -8.23749e-08, cumulative = 0.00298547
DICPCG:  Solving for p_rgh, Initial residual = 0.000573706, Final residual = 2.58277e-05, No Iterations 9
time step continuity errors : sum local = 3.37213e-05, global = 5.80889e-07, cumulative = 0.00298605
DICPCG:  Solving for p_rgh, Initial residual = 0.000150543, Final residual = 7.02011e-08, No Iterations 44
time step continuity errors : sum local = 9.16478e-08, global = 4.58456e-09, cumulative = 0.00298605
smoothSolver:  Solving for epsilon, Initial residual = 0.0145929, Final residual = 2.29778e-07, No Iterations 4
smoothSolver:  Solving for k, Initial residual = 0.00806223, Final residual = 4.21135e-07, No Iterations 4
ExecutionTime = 38.69 s  ClockTime = 39 s

Courant Number mean: 0.16288 max: 0.863974
Interface Courant Number mean: 0.0392875 max: 0.785789
deltaT = 0.005625
Time = 0.960625

PIMPLE: iteration 1
smoothSolver:  Solving for alpha.water, Initial residual = 0.00740368, Final residual = 4.07224e-10, No Iterations 4
Phase-1 volume fraction = 0.129402  Min(alpha.water) = -6.1934e-10  Max(alpha.water) = 1
MULES: Correcting alpha.water
MULES: Correcting alpha.water
Phase-1 volume fraction = 0.129402  Min(alpha.water) = -3.83702e-05  Max(alpha.water) = 1
DICPCG:  Solving for p_rgh, Initial residual = 0.0156688, Final residual = 0.000535869, No Iterations 2
time step continuity errors : sum local = 0.000824767, global = -2.9935e-07, cumulative = 0.00298575
DICPCG:  Solving for p_rgh, Initial residual = 0.000674, Final residual = 2.91113e-05, No Iterations 9
time step continuity errors : sum local = 4.47878e-05, global = 1.03595e-06, cumulative = 0.00298679
DICPCG:  Solving for p_rgh, Initial residual = 0.000179766, Final residual = 6.75627e-08, No Iterations 44
time step continuity errors : sum local = 1.03929e-07, global = 2.25814e-09, cumulative = 0.00298679
smoothSolver:  Solving for epsilon, Initial residual = 0.0161371, Final residual = 4.51807e-07, No Iterations 4
smoothSolver:  Solving for k, Initial residual = 0.00881963, Final residual = 7.13611e-07, No Iterations 4
ExecutionTime = 38.79 s  ClockTime = 39 s

Courant Number mean: 0.181456 max: 0.906981
Interface Courant Number mean: 0.0446087 max: 0.858647
deltaT = 0.0065625
Time = 0.967188

PIMPLE: iteration 1
smoothSolver:  Solving for alpha.water, Initial residual = 0.00855246, Final residual = 1.1275e-09, No Iterations 4
Phase-1 volume fraction = 0.129402  Min(alpha.water) = -4.20156e-11  Max(alpha.water) = 1
MULES: Correcting alpha.water
MULES: Correcting alpha.water
Phase-1 volume fraction = 0.129402  Min(alpha.water) = -1.51655e-05  Max(alpha.water) = 1
DICPCG:  Solving for p_rgh, Initial residual = 0.0178301, Final residual = 0.000626084, No Iterations 2
time step continuity errors : sum local = 0.00119932, global = -5.371e-07, cumulative = 0.00298625
DICPCG:  Solving for p_rgh, Initial residual = 0.000784567, Final residual = 3.23281e-05, No Iterations 10
time step continuity errors : sum local = 6.18443e-05, global = 1.87187e-06, cumulative = 0.00298813
DICPCG:  Solving for p_rgh, Initial residual = 0.000219963, Final residual = 8.41843e-08, No Iterations 44
time step continuity errors : sum local = 1.60964e-07, global = -8.55339e-09, cumulative = 0.00298812
smoothSolver:  Solving for epsilon, Initial residual = 0.0183771, Final residual = 1.68107e-07, No Iterations 5
smoothSolver:  Solving for k, Initial residual = 0.00992484, Final residual = 3.12618e-07, No Iterations 5
ExecutionTime = 38.88 s  ClockTime = 40 s

Courant Number mean: 0.209558 max: 0.98009
Interface Courant Number mean: 0.0525425 max: 0.968337
deltaT = 0.0065625
Time = 0.97375

PIMPLE: iteration 1
smoothSolver:  Solving for alpha.water, Initial residual = 0.00837559, Final residual = 1.1549e-09, No Iterations 4
Phase-1 volume fraction = 0.129402  Min(alpha.water) = -2.57946e-11  Max(alpha.water) = 1
MULES: Correcting alpha.water
MULES: Correcting alpha.water
Phase-1 volume fraction = 0.129402  Min(alpha.water) = -0.00017111  Max(alpha.water) = 1
DICPCG:  Solving for p_rgh, Initial residual = 0.0185956, Final residual = 0.00061357, No Iterations 2
time step continuity errors : sum local = 0.00117429, global = -9.78652e-07, cumulative = 0.00298714
DICPCG:  Solving for p_rgh, Initial residual = 0.000769459, Final residual = 3.55649e-05, No Iterations 9
time step continuity errors : sum local = 6.80263e-05, global = 1.48304e-06, cumulative = 0.00298862
DICPCG:  Solving for p_rgh, Initial residual = 0.000213045, Final residual = 9.81345e-08, No Iterations 43
time step continuity errors : sum local = 1.87534e-07, global = -1.44812e-08, cumulative = 0.00298861
smoothSolver:  Solving for epsilon, Initial residual = 0.0180575, Final residual = 1.90156e-07, No Iterations 5
smoothSolver:  Solving for k, Initial residual = 0.00965132, Final residual = 3.08e-07, No Iterations 5
ExecutionTime = 38.97 s  ClockTime = 40 s

Courant Number mean: 0.207537 max: 0.974119
Interface Courant Number mean: 0.052456 max: 0.94634
deltaT = 0.0065625
Time = 0.980313

PIMPLE: iteration 1
smoothSolver:  Solving for alpha.water, Initial residual = 0.00822539, Final residual = 1.15164e-09, No Iterations 4
Phase-1 volume fraction = 0.129402  Min(alpha.water) = -2.2316e-07  Max(alpha.water) = 1
MULES: Correcting alpha.water
MULES: Correcting alpha.water
Phase-1 volume fraction = 0.129402  Min(alpha.water) = -4.77689e-05  Max(alpha.water) = 1
DICPCG:  Solving for p_rgh, Initial residual = 0.0183803, Final residual = 0.000577609, No Iterations 2
time step continuity errors : sum local = 0.00110608, global = -6.04797e-07, cumulative = 0.002988
DICPCG:  Solving for p_rgh, Initial residual = 0.00072419, Final residual = 2.98406e-05, No Iterations 10
time step continuity errors : sum local = 5.7107e-05, global = 1.93581e-06, cumulative = 0.00298994
DICPCG:  Solving for p_rgh, Initial residual = 0.000201723, Final residual = 7.78494e-08, No Iterations 44
time step continuity errors : sum local = 1.48762e-07, global = 6.7143e-09, cumulative = 0.00298994
smoothSolver:  Solving for epsilon, Initial residual = 0.0175718, Final residual = 2.29405e-07, No Iterations 5
smoothSolver:  Solving for k, Initial residual = 0.00932163, Final residual = 3.21294e-07, No Iterations 5
ExecutionTime = 39.06 s  ClockTime = 40 s

Courant Number mean: 0.205662 max: 0.967703
Interface Courant Number mean: 0.0508479 max: 0.928269
deltaT = 0.0065625
Time = 0.986875

PIMPLE: iteration 1
smoothSolver:  Solving for alpha.water, Initial residual = 0.00807797, Final residual = 1.21235e-09, No Iterations 4
Phase-1 volume fraction = 0.129402  Min(alpha.water) = -1.22508e-07  Max(alpha.water) = 1
MULES: Correcting alpha.water
MULES: Correcting alpha.water
Phase-1 volume fraction = 0.129402  Min(alpha.water) = -5.55871e-05  Max(alpha.water) = 1
DICPCG:  Solving for p_rgh, Initial residual = 0.0176981, Final residual = 0.000545433, No Iterations 2
time step continuity errors : sum local = 0.00106235, global = -9.54634e-08, cumulative = 0.00298985
DICPCG:  Solving for p_rgh, Initial residual = 0.000690407, Final residual = 2.81437e-05, No Iterations 10
time step continuity errors : sum local = 5.48368e-05, global = 2.06707e-06, cumulative = 0.00299192
DICPCG:  Solving for p_rgh, Initial residual = 0.000189035, Final residual = 8.38076e-08, No Iterations 44
time step continuity errors : sum local = 1.63262e-07, global = 9.21207e-09, cumulative = 0.00299193
smoothSolver:  Solving for epsilon, Initial residual = 0.0170654, Final residual = 2.74325e-07, No Iterations 5
smoothSolver:  Solving for k, Initial residual = 0.00898155, Final residual = 3.69024e-07, No Iterations 5
ExecutionTime = 39.15 s  ClockTime = 40 s

Courant Number mean: 0.204166 max: 0.946958
Interface Courant Number mean: 0.0512358 max: 0.880233
deltaT = 0.0065625
Time = 0.993437

PIMPLE: iteration 1
smoothSolver:  Solving for alpha.water, Initial residual = 0.00794235, Final residual = 1.2484e-09, No Iterations 4
Phase-1 volume fraction = 0.129402  Min(alpha.water) = -1.00064e-06  Max(alpha.water) = 1
MULES: Correcting alpha.water
MULES: Correcting alpha.water
Phase-1 volume fraction = 0.129402  Min(alpha.water) = -4.55256e-05  Max(alpha.water) = 1
DICPCG:  Solving for p_rgh, Initial residual = 0.0165672, Final residual = 0.000532679, No Iterations 2
time step continuity errors : sum local = 0.00105445, global = -7.27262e-07, cumulative = 0.0029912
DICPCG:  Solving for p_rgh, Initial residual = 0.000674405, Final residual = 2.57904e-05, No Iterations 10
time step continuity errors : sum local = 5.10741e-05, global = 2.35681e-06, cumulative = 0.00299356
DICPCG:  Solving for p_rgh, Initial residual = 0.000180255, Final residual = 9.70215e-08, No Iterations 33
time step continuity errors : sum local = 1.91887e-07, global = 8.80467e-08, cumulative = 0.00299364
smoothSolver:  Solving for epsilon, Initial residual = 0.0164628, Final residual = 3.23038e-07, No Iterations 5
smoothSolver:  Solving for k, Initial residual = 0.00863741, Final residual = 4.60416e-07, No Iterations 5
ExecutionTime = 39.25 s  ClockTime = 40 s

Courant Number mean: 0.202879 max: 0.917377
Interface Courant Number mean: 0.0515849 max: 0.859901
deltaT = 0.0065625
Time = 1

PIMPLE: iteration 1
smoothSolver:  Solving for alpha.water, Initial residual = 0.00782709, Final residual = 1.26122e-09, No Iterations 4
Phase-1 volume fraction = 0.129402  Min(alpha.water) = -6.8724e-07  Max(alpha.water) = 1
MULES: Correcting alpha.water
MULES: Correcting alpha.water
Phase-1 volume fraction = 0.129402  Min(alpha.water) = -3.89272e-05  Max(alpha.water) = 1
DICPCG:  Solving for p_rgh, Initial residual = 0.0166586, Final residual = 0.000542482, No Iterations 2
time step continuity errors : sum local = 0.00107509, global = -1.07433e-06, cumulative = 0.00299257
DICPCG:  Solving for p_rgh, Initial residual = 0.000681827, Final residual = 2.62943e-05, No Iterations 10
time step continuity errors : sum local = 5.21361e-05, global = 1.93171e-06, cumulative = 0.0029945
DICPCG:  Solving for p_rgh, Initial residual = 0.000179032, Final residual = 9.07852e-08, No Iterations 32
time step continuity errors : sum local = 1.80073e-07, global = -4.17205e-08, cumulative = 0.00299446
smoothSolver:  Solving for epsilon, Initial residual = 0.0158492, Final residual = 3.61739e-07, No Iterations 5
smoothSolver:  Solving for k, Initial residual = 0.00833285, Final residual = 5.38303e-07, No Iterations 5
ExecutionTime = 39.36 s  ClockTime = 40 s

End

